aquifer.con: written by SWAT+ editor v2.1.4 on 2022-11-22 14:57 for SWAT+ rev.60.5.4
      id  name                gis_id          area           lat           lon          elev       aqu               wst       cst      ovfl      rule   out_tot       obj_typ    obj_id       hyd_typ          frac  
       1  aqu011                  11     723.09367      40.93440      -2.30404     992.99500         1      s40941n2292w         0         0         0         2           sdc        80           tot       1.00000           aqu        73           rhg       1.00000  
       2  aqu012                  12   14353.44990      40.93440      -2.30404    1140.26717         2      s40941n2292w         0         0         0         2           aqu         1           tot       1.00000           aqu        73           rhg       1.00000  
       3  aqu021                  21     622.73169      40.90728      -2.20670    1135.19104         3      s40889n2229w         0         0         0         2           sdc        78           tot       1.00000           aqu        73           rhg       1.00000  
       4  aqu022                  22   15436.68433      40.90728      -2.20670    1166.22451         4      s40889n2229w         0         0         0         2           aqu         3           tot       1.00000           aqu        73           rhg       1.00000  
       5  aqu031                  31    2222.27412      40.85851      -1.92031    1038.59900         5      s40878n1899w         0         0         0         2           sdc        21           tot       1.00000           aqu        73           rhg       1.00000  
       6  aqu032                  32   23554.19344      40.85851      -1.92031    1191.97632         6      s40878n1899w         0         0         0         2           aqu         5           tot       1.00000           aqu        73           rhg       1.00000  
       7  aqu041                  41     606.92124      40.84785      -2.08962    1190.43994         7      s40835n2100w         0         0         0         2           sdc        17           tot       1.00000           aqu        73           rhg       1.00000  
       8  aqu042                  42   16951.67523      40.84785      -2.08962    1192.91883         8      s40835n2100w         0         0         0         2           aqu         7           tot       1.00000           aqu        73           rhg       1.00000  
       9  aqu051                  51     221.97120      40.83702      -2.35315    1133.12402         9      s40843n2364w         0         0         0         2           sdc        55           tot       1.00000           aqu        73           rhg       1.00000  
      10  aqu052                  52    7505.02610      40.83702      -2.35315    1089.70365        10      s40843n2364w         0         0         0         2           aqu         9           tot       1.00000           aqu        73           rhg       1.00000  
      11  aqu061                  61     194.59975      40.83656      -2.01816    1166.37598        11      s40833n2034w         0         0         0         2           sdc        20           tot       1.00000           aqu        73           rhg       1.00000  
      12  aqu062                  62    3217.20751      40.83656      -2.01816    1174.16649        12      s40833n2034w         0         0         0         2           aqu        11           tot       1.00000           aqu        73           rhg       1.00000  
      13  aqu071                  71    3130.78123      40.66882      -1.64276    1358.48303        13      s40669n1648w         0         0         0         2           sdc        35           tot       1.00000           aqu        73           rhg       1.00000  
      14  aqu072                  72   50080.25124      40.66882      -1.64276    1382.54350        14      s40669n1648w         0         0         0         2           aqu        13           tot       1.00000           aqu        73           rhg       1.00000  
      15  aqu081                  81    1174.59758      40.76097      -2.21758    1203.36096        15      s40739n2237w         0         0         0         2           sdc        13           tot       1.00000           aqu        73           rhg       1.00000  
      16  aqu082                  82   17814.87572      40.76097      -2.21758    1181.24591        16      s40739n2237w         0         0         0         2           aqu        15           tot       1.00000           aqu        73           rhg       1.00000  
      17  aqu091                  91     664.16381      40.74933      -2.36932     920.31403        17      s40743n2369w         0         0         0         2           sdc         9           tot       1.00000           aqu        73           rhg       1.00000  
      18  aqu092                  92   14285.02128      40.74933      -2.36932    1090.26330        18      s40743n2369w         0         0         0         2           aqu        17           tot       1.00000           aqu        73           rhg       1.00000  
      19  aqu101                 101    1124.66656      40.73467      -2.51550     899.89001        19      s40748n2501w         0         0         0         2           sdc         4           tot       1.00000           aqu        73           rhg       1.00000  
      20  aqu102                 102   19115.51944      40.73467      -2.51550     962.21176        20      s40748n2501w         0         0         0         2           aqu        19           tot       1.00000           aqu        73           rhg       1.00000  
      21  aqu111                 111     760.52631      40.73171      -1.93260    1199.15002        21      s40728n1908w         0         0         0         2           sdc        79           tot       1.00000           aqu        73           rhg       1.00000  
      22  aqu112                 112   15091.35414      40.73171      -1.93260    1271.81170        22      s40728n1908w         0         0         0         2           aqu        21           tot       1.00000           aqu        73           rhg       1.00000  
      23  aqu121                 121    2685.77647      40.61208      -2.66036    1045.22400        23      s40602n2641w         0         0         0         2           res         3           tot       1.00000           aqu        73           rhg       1.00000  
      24  aqu122                 122   60955.90244      40.61208      -2.66036     909.95199        24      s40602n2641w         0         0         0         2           aqu        23           tot       1.00000           aqu        73           rhg       1.00000  
      25  aqu131                 131     750.15265      40.71402      -1.79110    1260.07495        25      s40723n1776w         0         0         0         2           sdc        91           tot       1.00000           aqu        73           rhg       1.00000  
      26  aqu132                 132   14659.84764      40.71402      -1.79110    1319.59816        26      s40723n1776w         0         0         0         2           aqu        25           tot       1.00000           aqu        73           rhg       1.00000  
      27  aqu141                 141     406.63473      40.73900      -2.09730    1278.13696        27      s40735n2106w         0         0         0         2           sdc        18           tot       1.00000           aqu        73           rhg       1.00000  
      28  aqu142                 142   10815.78397      40.73900      -2.09730    1245.64842        28      s40735n2106w         0         0         0         2           aqu        27           tot       1.00000           aqu        73           rhg       1.00000  
      29  aqu151                 151     823.70561      40.66667      -2.28937    1199.23901        29      s40691n2306w         0         0         0         2           sdc        59           tot       1.00000           aqu        73           rhg       1.00000  
      30  aqu152                 152   16751.26374      40.66667      -2.28937    1217.10055        30      s40691n2306w         0         0         0         2           aqu        29           tot       1.00000           aqu        73           rhg       1.00000  
      31  aqu161                 161    1000.49517      40.61880      -1.82898    1335.81201        31      s40626n1848w         0         0         0         2           sdc        68           tot       1.00000           aqu        73           rhg       1.00000  
      32  aqu162                 162   19616.32945      40.61880      -1.82898    1443.61468        32      s40626n1848w         0         0         0         2           aqu        31           tot       1.00000           aqu        73           rhg       1.00000  
      33  aqu171                 171     492.31111      40.62074      -1.99291    1457.85803        33      s40630n1980w         0         0         0         2           sdc        29           tot       1.00000           aqu        73           rhg       1.00000  
      34  aqu172                 172   12250.22283      40.62074      -1.99291    1378.05040        34      s40630n1980w         0         0         0         2           aqu        33           tot       1.00000           aqu        73           rhg       1.00000  
      35  aqu181                 181    3007.35974      40.53306      -2.10038    1305.91895        35      s40535n2117w         0         0         0         2           sdc        33           tot       1.00000           aqu        73           rhg       1.00000  
      36  aqu182                 182   52779.33848      40.53306      -2.10038    1288.15755        36      s40535n2117w         0         0         0         2           aqu        35           tot       1.00000           aqu        73           rhg       1.00000  
      37  aqu191                 191    1585.10681      40.57174      -2.34961    1141.53503        37      s40593n2377w         0         0         0         2           sdc        28           tot       1.00000           aqu        73           rhg       1.00000  
      38  aqu192                 192   16209.33406      40.57174      -2.34961    1031.71382        38      s40593n2377w         0         0         0         2           aqu        37           tot       1.00000           aqu        73           rhg       1.00000  
      39  aqu201                 201     247.15543      40.57199      -1.88996    1380.04895        39      s40578n1917w         0         0         0         2           sdc        40           tot       1.00000           aqu        73           rhg       1.00000  
      40  aqu202                 202    5493.72460      40.57199      -1.88996    1455.39017        40      s40578n1917w         0         0         0         2           aqu        39           tot       1.00000           aqu        73           rhg       1.00000  
      41  aqu211                 211    1820.88871      40.47859      -2.56894     748.11902        41      s40500n2580w         0         0         0         2           res         2           tot       1.00000           aqu        73           rhg       1.00000  
      42  aqu212                 212   32217.75670      40.47859      -2.56894     881.77547        42      s40500n2580w         0         0         0         2           aqu        41           tot       1.00000           aqu        73           rhg       1.00000  
      43  aqu221                 221     502.43480      40.49008      -1.75879    1565.93896        43      s40474n1792w         0         0         0         2           sdc        75           tot       1.00000           aqu        73           rhg       1.00000  
      44  aqu222                 222   17852.12088      40.49008      -1.75879    1610.19145        44      s40474n1792w         0         0         0         2           aqu        43           tot       1.00000           aqu        73           rhg       1.00000  
      45  aqu231                 231     827.39263      40.45810      -2.43644     774.39600        45      s40446n2451w         0         0         0         2           res         2           tot       1.00000           aqu        73           rhg       1.00000  
      46  aqu232                 232   12340.33613      40.45810      -2.43644     824.44423        46      s40446n2451w         0         0         0         2           aqu        45           tot       1.00000           aqu        73           rhg       1.00000  
      47  aqu241                 241     664.22631      40.42442      -1.81149    1586.90405        47      s40424n1795w         0         0         0         2           sdc        50           tot       1.00000           aqu        73           rhg       1.00000  
      48  aqu242                 242   16488.86029      40.42442      -1.81149    1593.32899        48      s40424n1795w         0         0         0         2           aqu        47           tot       1.00000           aqu        73           rhg       1.00000  
      49  aqu251                 251    1948.49715      40.41082      -2.07969    1105.22400        49      s40433n2057w         0         0         0         2           sdc        37           tot       1.00000           aqu        73           rhg       1.00000  
      50  aqu252                 252   32353.98902      40.41082      -2.07969    1263.39488        50      s40433n2057w         0         0         0         2           aqu        49           tot       1.00000           aqu        73           rhg       1.00000  
      51  aqu261                 261     338.58106      40.46078      -2.35337     799.71100        51      s40444n2386w         0         0         0         2           sdc        32           tot       1.00000           aqu        73           rhg       1.00000  
      52  aqu262                 262    1389.31971      40.46078      -2.35337     846.17718        52      s40444n2386w         0         0         0         2           aqu        51           tot       1.00000           aqu        73           rhg       1.00000  
      53  aqu271                 271     884.26025      40.28490      -2.78252     775.15002        53      s40305n2787w         0         0         0         2           res         3           tot       1.00000           aqu        73           rhg       1.00000  
      54  aqu272                 272   15967.49045      40.28490      -2.78252     843.25412        54      s40305n2787w         0         0         0         2           aqu        53           tot       1.00000           aqu        73           rhg       1.00000  
      55  aqu281                 281     170.60286      40.41724      -2.35080     832.43701        55      s40392n2323w         0         0         0         2           sdc        51           tot       1.00000           aqu        73           rhg       1.00000  
      56  aqu282                 282    1678.59467      40.41724      -2.35080     859.24403        56      s40392n2323w         0         0         0         2           aqu        55           tot       1.00000           aqu        73           rhg       1.00000  
      57  aqu291                 291    3503.10791      40.34171      -2.20966     896.35999        57      s40337n2194w         0         0         0         2           sdc        56           tot       1.00000           aqu        73           rhg       1.00000  
      58  aqu292                 292   35294.41995      40.34171      -2.20966    1041.83472        58      s40337n2194w         0         0         0         2           aqu        57           tot       1.00000           aqu        73           rhg       1.00000  
      59  aqu301                 301      89.05094      40.38295      -2.68965     720.66699        59      s40404n2716w         0         0         0         2           res         2           tot       1.00000           aqu        73           rhg       1.00000  
      60  aqu302                 302    3148.21647      40.38295      -2.68965     769.27115        60      s40404n2716w         0         0         0         2           aqu        59           tot       1.00000           aqu        73           rhg       1.00000  
      61  aqu311                 311    1509.99155      40.33995      -2.43197     812.01202        61      s40346n2456w         0         0         0         2           res         2           tot       1.00000           aqu        73           rhg       1.00000  
      62  aqu312                 312   17826.31173      40.33995      -2.43197     888.45848        62      s40346n2456w         0         0         0         2           aqu        61           tot       1.00000           aqu        73           rhg       1.00000  
      63  aqu321                 321    1080.60977      40.31461      -2.58766     783.99200        63      s40300n2590w         0         0         0         2           res         2           tot       1.00000           aqu        73           rhg       1.00000  
      64  aqu322                 322   13074.17840      40.31461      -2.58766     871.44088        64      s40300n2590w         0         0         0         2           aqu        63           tot       1.00000           aqu        73           rhg       1.00000  
      65  aqu331                 331       2.18722      40.36219      -2.81346     690.08899        65      s40355n2784w         0         0         0         2           sdc         1           tot       1.00000           aqu        73           rhg       1.00000  
      66  aqu332                 332      32.68326      40.36219      -2.81346     754.02103        66      s40355n2784w         0         0         0         2           aqu        65           tot       1.00000           aqu        73           rhg       1.00000  
      67  aqu341                 341    1190.72048      40.23227      -2.67674     842.12201        67      s40252n2658w         0         0         0         2           res         2           tot       1.00000           aqu        73           rhg       1.00000  
      68  aqu342                 342   21663.56378      40.23227      -2.67674     848.45502        68      s40252n2658w         0         0         0         2           aqu        67           tot       1.00000           aqu        73           rhg       1.00000  
      69  aqu351                 351    1810.57755      40.22840      -2.40689     863.77502        69      s40244n2396w         0         0         0         2           sdc        70           tot       1.00000           aqu        73           rhg       1.00000  
      70  aqu352                 352   23728.29585      40.22840      -2.40689     924.18447        70      s40244n2396w         0         0         0         2           aqu        69           tot       1.00000           aqu        73           rhg       1.00000  
      71  aqu361                 361    2894.62437      40.13244      -2.51283     843.99597        71      s40148n2532w         0         0         0         2           sdc        52           tot       1.00000           aqu        73           rhg       1.00000  
      72  aqu362                 362   33152.26043      40.13244      -2.51283     982.21630        72      s40148n2532w         0         0         0         2           aqu        71           tot       1.00000           aqu        73           rhg       1.00000  
      73  aqu_deep033             33  726828.18169      40.54672      -2.23265    1126.04051        73      s40539n2249w         0         0         0         0  
