channel-lte.cha: written by SWAT+ editor v2.1.4 on 2022-11-22 14:57 for SWAT+ rev.60.5.4
      id  name                       cha_ini           cha_hyd           cha_sed           cha_nut  
       1  cha001                    initcha1         hydcha001              null           nutcha1  
       2  cha006                    initcha1         hydcha006              null           nutcha1  
       3  cha013                    initcha1         hydcha013              null           nutcha1  
       4  cha015                    initcha1         hydcha015              null           nutcha1  
       5  cha016                    initcha1         hydcha016              null           nutcha1  
       6  cha017                    initcha1         hydcha017              null           nutcha1  
       7  cha018                    initcha1         hydcha018              null           nutcha1  
       8  cha019                    initcha1         hydcha019              null           nutcha1  
       9  cha021                    initcha1         hydcha021              null           nutcha1  
      10  cha022                    initcha1         hydcha022              null           nutcha1  
      11  cha024                    initcha1         hydcha024              null           nutcha1  
      12  cha026                    initcha1         hydcha026              null           nutcha1  
      13  cha028                    initcha1         hydcha028              null           nutcha1  
      14  cha029                    initcha1         hydcha029              null           nutcha1  
      15  cha031                    initcha1         hydcha031              null           nutcha1  
      16  cha034                    initcha1         hydcha034              null           nutcha1  
      17  cha035                    initcha1         hydcha035              null           nutcha1  
      18  cha037                    initcha1         hydcha037              null           nutcha1  
      19  cha038                    initcha1         hydcha038              null           nutcha1  
      20  cha042                    initcha1         hydcha042              null           nutcha1  
      21  cha043                    initcha1         hydcha043              null           nutcha1  
      22  cha044                    initcha1         hydcha044              null           nutcha1  
      23  cha046                    initcha1         hydcha046              null           nutcha1  
      24  cha047                    initcha1         hydcha047              null           nutcha1  
      25  cha048                    initcha1         hydcha048              null           nutcha1  
      26  cha049                    initcha1         hydcha049              null           nutcha1  
      27  cha050                    initcha1         hydcha050              null           nutcha1  
      28  cha051                    initcha1         hydcha051              null           nutcha1  
      29  cha052                    initcha1         hydcha052              null           nutcha1  
      30  cha053                    initcha1         hydcha053              null           nutcha1  
      31  cha055                    initcha1         hydcha055              null           nutcha1  
      32  cha057                    initcha1         hydcha057              null           nutcha1  
      33  cha058                    initcha1         hydcha058              null           nutcha1  
      34  cha060                    initcha1         hydcha060              null           nutcha1  
      35  cha062                    initcha1         hydcha062              null           nutcha1  
      36  cha063                    initcha1         hydcha063              null           nutcha1  
      37  cha065                    initcha1         hydcha065              null           nutcha1  
      38  cha067                    initcha1         hydcha067              null           nutcha1  
      39  cha068                    initcha1         hydcha068              null           nutcha1  
      40  cha069                    initcha1         hydcha069              null           nutcha1  
      41  cha071                    initcha1         hydcha071              null           nutcha1  
      42  cha072                    initcha1         hydcha072              null           nutcha1  
      43  cha073                    initcha1         hydcha073              null           nutcha1  
      44  cha074                    initcha1         hydcha074              null           nutcha1  
      45  cha075                    initcha1         hydcha075              null           nutcha1  
      46  cha076                    initcha1         hydcha076              null           nutcha1  
      47  cha078                    initcha1         hydcha078              null           nutcha1  
      48  cha079                    initcha1         hydcha079              null           nutcha1  
      49  cha080                    initcha1         hydcha080              null           nutcha1  
      50  cha081                    initcha1         hydcha081              null           nutcha1  
      51  cha082                    initcha1         hydcha082              null           nutcha1  
      52  cha084                    initcha1         hydcha084              null           nutcha1  
      53  cha085                    initcha1         hydcha085              null           nutcha1  
      54  cha086                    initcha1         hydcha086              null           nutcha1  
      55  cha087                    initcha1         hydcha087              null           nutcha1  
      56  cha088                    initcha1         hydcha088              null           nutcha1  
      57  cha089                    initcha1         hydcha089              null           nutcha1  
      58  cha090                    initcha1         hydcha090              null           nutcha1  
      59  cha092                    initcha1         hydcha092              null           nutcha1  
      60  cha093                    initcha1         hydcha093              null           nutcha1  
      61  cha094                    initcha1         hydcha094              null           nutcha1  
      62  cha095                    initcha1         hydcha095              null           nutcha1  
      63  cha096                    initcha1         hydcha096              null           nutcha1  
      64  cha097                    initcha1         hydcha097              null           nutcha1  
      65  cha098                    initcha1         hydcha098              null           nutcha1  
      66  cha100                    initcha1         hydcha100              null           nutcha1  
      67  cha101                    initcha1         hydcha101              null           nutcha1  
      68  cha102                    initcha1         hydcha102              null           nutcha1  
      69  cha103                    initcha1         hydcha103              null           nutcha1  
      70  cha105                    initcha1         hydcha105              null           nutcha1  
      71  cha106                    initcha1         hydcha106              null           nutcha1  
      72  cha107                    initcha1         hydcha107              null           nutcha1  
      73  cha108                    initcha1         hydcha108              null           nutcha1  
      74  cha109                    initcha1         hydcha109              null           nutcha1  
      75  cha111                    initcha1         hydcha111              null           nutcha1  
      76  cha113                    initcha1         hydcha113              null           nutcha1  
      77  cha115                    initcha1         hydcha115              null           nutcha1  
      78  cha116                    initcha1         hydcha116              null           nutcha1  
      79  cha117                    initcha1         hydcha117              null           nutcha1  
      80  cha118                    initcha1         hydcha118              null           nutcha1  
      81  cha119                    initcha1         hydcha119              null           nutcha1  
      82  cha120                    initcha1         hydcha120              null           nutcha1  
      83  cha122                    initcha1         hydcha122              null           nutcha1  
      84  cha123                    initcha1         hydcha123              null           nutcha1  
      85  cha124                    initcha1         hydcha124              null           nutcha1  
      86  cha127                    initcha1         hydcha127              null           nutcha1  
      87  cha128                    initcha1         hydcha128              null           nutcha1  
      88  cha129                    initcha1         hydcha129              null           nutcha1  
      89  cha131                    initcha1         hydcha131              null           nutcha1  
      90  cha133                    initcha1         hydcha133              null           nutcha1  
      91  cha134                    initcha1         hydcha134              null           nutcha1  
      92  cha135                    initcha1         hydcha135              null           nutcha1  
      93  cha136                    initcha1         hydcha136              null           nutcha1  
      94  cha139                    initcha1         hydcha139              null           nutcha1  
      95  cha141                    initcha1         hydcha141              null           nutcha1  
      96  cha142                    initcha1         hydcha142              null           nutcha1  
      97  cha143                    initcha1         hydcha143              null           nutcha1  
      98  cha144                    initcha1         hydcha144              null           nutcha1  
      99  cha147                    initcha1         hydcha147              null           nutcha1  
     100  cha148                    initcha1         hydcha148              null           nutcha1  
     101  cha152                    initcha1         hydcha152              null           nutcha1  
     102  cha153                    initcha1         hydcha153              null           nutcha1  
     103  cha155                    initcha1         hydcha155              null           nutcha1  
     104  cha156                    initcha1         hydcha156              null           nutcha1  
     105  cha157                    initcha1         hydcha157              null           nutcha1  
     106  cha158                    initcha1         hydcha158              null           nutcha1  
     107  cha159                    initcha1         hydcha159              null           nutcha1  
     108  cha162                    initcha1         hydcha162              null           nutcha1  
     109  cha166                    initcha1         hydcha166              null           nutcha1  
     110  cha168                    initcha1         hydcha168              null           nutcha1  
     111  cha169                    initcha1         hydcha169              null           nutcha1  
     112  cha170                    initcha1         hydcha170              null           nutcha1  
     113  cha171                    initcha1         hydcha171              null           nutcha1  
     114  cha173                    initcha1         hydcha173              null           nutcha1  
     115  cha175                    initcha1         hydcha175              null           nutcha1  
     116  cha176                    initcha1         hydcha176              null           nutcha1  
     117  cha177                    initcha1         hydcha177              null           nutcha1  
     118  cha178                    initcha1         hydcha178              null           nutcha1  
     119  cha180                    initcha1         hydcha180              null           nutcha1  
     120  cha182                    initcha1         hydcha182              null           nutcha1  
     121  cha184                    initcha1         hydcha184              null           nutcha1  
     122  cha185                    initcha1         hydcha185              null           nutcha1  
     123  cha186                    initcha1         hydcha186              null           nutcha1  
     124  cha187                    initcha1         hydcha187              null           nutcha1  
     125  cha188                    initcha1         hydcha188              null           nutcha1  
     126  cha189                    initcha1         hydcha189              null           nutcha1  
     127  cha190                    initcha1         hydcha190              null           nutcha1  
     128  cha191                    initcha1         hydcha191              null           nutcha1  
     129  cha192                    initcha1         hydcha192              null           nutcha1  
     130  cha195                    initcha1         hydcha195              null           nutcha1  
     131  cha197                    initcha1         hydcha197              null           nutcha1  
     132  cha199                    initcha1         hydcha199              null           nutcha1  
     133  cha201                    initcha1         hydcha201              null           nutcha1  
     134  cha202                    initcha1         hydcha202              null           nutcha1  
     135  cha203                    initcha1         hydcha203              null           nutcha1  
     136  cha204                    initcha1         hydcha204              null           nutcha1  
     137  cha205                    initcha1         hydcha205              null           nutcha1  
     138  cha210                    initcha1         hydcha210              null           nutcha1  
     139  cha211                    initcha1         hydcha211              null           nutcha1  
     140  cha214                    initcha1         hydcha214              null           nutcha1  
     141  cha218                    initcha1         hydcha218              null           nutcha1  
     142  cha219                    initcha1         hydcha219              null           nutcha1  
     143  cha221                    initcha1         hydcha221              null           nutcha1  
     144  cha227                    initcha1         hydcha227              null           nutcha1  
     145  cha229                    initcha1         hydcha229              null           nutcha1  
     146  cha232                    initcha1         hydcha232              null           nutcha1  
     147  cha233                    initcha1         hydcha233              null           nutcha1  
     148  cha235                    initcha1         hydcha235              null           nutcha1  
     149  cha238                    initcha1         hydcha238              null           nutcha1  
     150  cha239                    initcha1         hydcha239              null           nutcha1  
     151  cha240                    initcha1         hydcha240              null           nutcha1  
     152  cha243                    initcha1         hydcha243              null           nutcha1  
     153  cha244                    initcha1         hydcha244              null           nutcha1  
     154  cha245                    initcha1         hydcha245              null           nutcha1  
     155  cha246                    initcha1         hydcha246              null           nutcha1  
     156  cha247                    initcha1         hydcha247              null           nutcha1  
     157  cha248                    initcha1         hydcha248              null           nutcha1  
     158  cha250                    initcha1         hydcha250              null           nutcha1  
     159  cha252                    initcha1         hydcha252              null           nutcha1  
     160  cha257                    initcha1         hydcha257              null           nutcha1  
     161  cha259                    initcha1         hydcha259              null           nutcha1  
     162  cha260                    initcha1         hydcha260              null           nutcha1  
     163  cha262                    initcha1         hydcha262              null           nutcha1  
     164  cha266                    initcha1         hydcha266              null           nutcha1  
     165  cha270                    initcha1         hydcha270              null           nutcha1  
     166  cha274                    initcha1         hydcha274              null           nutcha1  
     167  cha275                    initcha1         hydcha275              null           nutcha1  
     168  cha277                    initcha1         hydcha277              null           nutcha1  
     169  cha282                    initcha1         hydcha282              null           nutcha1  
     170  cha283                    initcha1         hydcha283              null           nutcha1  
     171  cha284                    initcha1         hydcha284              null           nutcha1  
     172  cha285                    initcha1         hydcha285              null           nutcha1  
     173  cha286                    initcha1         hydcha286              null           nutcha1  
     174  cha287                    initcha1         hydcha287              null           nutcha1  
     175  cha291                    initcha1         hydcha291              null           nutcha1  
     176  cha292                    initcha1         hydcha292              null           nutcha1  
     177  cha293                    initcha1         hydcha293              null           nutcha1  
     178  cha294                    initcha1         hydcha294              null           nutcha1  
