chandeg.con: written by SWAT+ editor v2.1.4 on 2022-11-22 14:57 for SWAT+ rev.60.5.4
      id  name                gis_id          area           lat           lon          elev      lcha               wst       cst      ovfl      rule   out_tot       obj_typ    obj_id       hyd_typ          frac  
       1  cha001                   1  739209.77920      40.36223      -2.81961             0         1      s40357n2850w         0         0         0         0  
       2  cha006                   6  384711.31701      40.49249      -2.75111             0         2      s40505n2777w         0         0         0         1           res         3           tot       1.00000  
       3  cha013                  13  336077.90976      40.70416      -2.59839             0         3      s40700n2570w         0         0         0         1           res         1           tot       1.00000  
       4  cha015                  15  327665.92000      40.71327      -2.57542             0         4      s40700n2570w         0         0         0         1           sdc         3           tot       1.00000  
       5  cha016                  16  319970.40640      40.70429      -2.53105             0         5      s40697n2504w         0         0         0         1           sdc         4           tot       1.00000  
       6  cha017                  17  314284.64640      40.70660      -2.49226             0         6      s40697n2504w         0         0         0         1           sdc         5           tot       1.00000  
       7  cha018                  18  312683.05920      40.70683      -2.46777             0         7      s40696n2438w         0         0         0         1           sdc         6           tot       1.00000  
       8  cha019                  19  310581.63200      40.72539      -2.45749             0         8      s40745n2435w         0         0         0         1           sdc         7           tot       1.00000  
       9  cha021                  21  289851.69920      40.73632      -2.41950             0         9      s40745n2435w         0         0         0         1           sdc         8           tot       1.00000  
      10  cha022                  22  280491.46880      40.76476      -2.39919             0        10      s40743n2369w         0         0         0         1           sdc         9           tot       1.00000  
      11  cha024                  24  276819.50720      40.77118      -2.36751             0        11      s40793n2367w         0         0         0         1           sdc        10           tot       1.00000  
      12  cha026                  26  330465.99445      40.39899      -2.78401             0        12      s40405n2782w         0         0         0         1           res         3           tot       1.00000  
      13  cha028                  28  236039.55200      40.78877      -2.31267             0        13      s40791n2301w         0         0         0         1           sdc        11           tot       1.00000  
      14  cha029                  29  231037.33760      40.78140      -2.25005             0        14      s40789n2235w         0         0         0         1           sdc        13           tot       1.00000  
      15  cha031                  31  222960.87040      40.79535      -2.23082             0        15      s40789n2235w         0         0         0         1           sdc        14           tot       1.00000  
      16  cha034                  34  219965.33760      40.79997      -2.18291             0        16      s40787n2169w         0         0         0         1           sdc        15           tot       1.00000  
      17  cha035                  35  131219.78880      40.81825      -2.13414             0        17      s40837n2166w         0         0         0         1           sdc        16           tot       1.00000  
      18  cha037                  37   85830.29760      40.78075      -2.15618             0        18      s40787n2169w         0         0         0         1           sdc        16           tot       1.00000  
      19  cha038                  38  120319.64160      40.81315      -2.07856             0        19      s40835n2100w         0         0         0         1           sdc        17           tot       1.00000  
      20  cha042                  42   97809.30560      40.82122      -2.00656             0        20      s40833n2034w         0         0         0         1           sdc        19           tot       1.00000  
      21  cha043                  43   94394.87360      40.83321      -1.96754             0        21      s40830n1968w         0         0         0         1           sdc        20           tot       1.00000  
      22  cha044                  44   92153.54240      40.82841      -1.95961             0        22      s40830n1968w         0         0         0         1           sdc        21           tot       1.00000  
      23  cha046                  46  154962.61897      40.45814      -2.41800             0        23      s40444n2386w         0         0         0         1           res         2           tot       1.00000  
      24  cha047                  47   89311.28320      40.85743      -1.95356             0        24      s40880n1965w         0         0         0         1           sdc        22           tot       1.00000  
      25  cha048                  48  152372.78720      40.46115      -2.40124             0        25      s40444n2386w         0         0         0         1           sdc        23           tot       1.00000  
      26  cha049                  49   83033.53600      40.74047      -2.10044             0        26      s40735n2106w         0         0         0         1           sdc        18           tot       1.00000  
      27  cha050                  50   79664.22400      40.84638      -1.91218             0        27      s40828n1902w         0         0         0         1           sdc        24           tot       1.00000  
      28  cha051                  51   73581.13920      40.51429      -2.37871             0        28      s40494n2383w         0         0         0         1           sdc        25           tot       1.00000  
      29  cha052                  52   53991.05920      40.68062      -2.03720             0        29      s40683n2043w         0         0         0         1           sdc        26           tot       1.00000  
      30  cha053                  53   72337.48480      40.82544      -1.88317             0        30      s40828n1902w         0         0         0         1           sdc        27           tot       1.00000  
      31  cha055                  55   66325.33120      40.50342      -2.33721             0        31      s40492n2317w         0         0         0         1           sdc        28           tot       1.00000  
      32  cha057                  57   76677.11360      40.45770      -2.36736             0        32      s40444n2386w         0         0         0         1           sdc        25           tot       1.00000  
      33  cha058                  58   55786.32320      40.51263      -2.29153             0        33      s40492n2317w         0         0         0         1           sdc        31           tot       1.00000  
      34  cha060                  60   70180.95360      40.81140      -1.85807             0        34      s40826n1836w         0         0         0         1           sdc        30           tot       1.00000  
      35  cha062                  62   53211.03360      40.80393      -1.79307             0        35      s40823n1770w         0         0         0         1           sdc        34           tot       1.00000  
      36  cha063                  63   49758.48000      40.78769      -1.77492             0        36      s40773n1773w         0         0         0         1           sdc        35           tot       1.00000  
      37  cha065                  65   34302.48640      40.44346      -2.29955             0        37      s40442n2320w         0         0         0         1           sdc        32           tot       1.00000  
      38  cha067                  67   48796.60480      40.62946      -1.97970             0        38      s40630n1980w         0         0         0         1           sdc        29           tot       1.00000  
      39  cha068                  68   48096.07040      40.55095      -2.25599             0        39      s40539n2249w         0         0         0         1           sdc        33           tot       1.00000  
      40  cha069                  69   41248.21120      40.59190      -1.91735             0        40      s40578n1917w         0         0         0         1           sdc        38           tot       1.00000  
      41  cha071                  71   44925.04640      40.55953      -2.23390             0        41      s40539n2249w         0         0         0         1           sdc        39           tot       1.00000  
      42  cha072                  72   41480.61760      40.57143      -2.20327             0        42      s40587n2180w         0         0         0         1           sdc        41           tot       1.00000  
      43  cha073                  73   47063.58080      40.78656      -1.72707             0        43      s40771n1707w         0         0         0         1           sdc        36           tot       1.00000  
      44  cha074                  74   26939.87840      40.46680      -2.20089             0        44      s40487n2186w         0         0         0         1           sdc        37           tot       1.00000  
      45  cha075                  75   38255.16160      40.56125      -1.90839             0        45      s40578n1917w         0         0         0         1           sdc        40           tot       1.00000  
      46  cha076                  76   49601.66512      40.23494      -2.69593             0        46      s40254n2724w         0         0         0         1           res         2           tot       1.00000  
      47  cha078                  78   37386.33600      40.54862      -2.15445             0        47      s40537n2183w         0         0         0         1           sdc        42           tot       1.00000  
      48  cha079                  79   42300.94720      40.18393      -2.68500             0        48      s40202n2661w         0         0         0         1           sdc        46           tot       1.00000  
      49  cha080                  80   41781.57760      40.74857      -1.66822             0        49      s40769n1641w         0         0         0         1           sdc        43           tot       1.00000  
      50  cha081                  81   17153.08640      40.51161      -1.89290             0        50      s40528n1920w         0         0         0         1           sdc        45           tot       1.00000  
      51  cha082                  82   40646.72640      40.43332      -2.33738             0        51      s40442n2320w         0         0         0         1           sdc        32           tot       1.00000  
      52  cha084                  84   36046.50880      40.16639      -2.68464             0        52      s40152n2663w         0         0         0         1           sdc        48           tot       1.00000  
      53  cha085                  85   33222.06400      40.15082      -2.67194             0        53      s40152n2663w         0         0         0         1           sdc        52           tot       1.00000  
      54  cha086                  86   36611.44450      40.31326      -2.63600             0        54      s40302n2656w         0         0         0         1           res         2           tot       1.00000  
      55  cha087                  87   38862.95680      40.79616      -2.34342             0        55      s40793n2367w         0         0         0         1           sdc        11           tot       1.00000  
      56  cha088                  88   38796.77760      40.41149      -2.32051             0        56      s40392n2323w         0         0         0         1           sdc        51           tot       1.00000  
      57  cha089                  89   14722.46400      40.48088      -1.85919             0        57      s40476n1857w         0         0         0         1           sdc        50           tot       1.00000  
      58  cha090                  90   33314.67840      40.30459      -2.60126             0        58      s40300n2590w         0         0         0         1           sdc        54           tot       1.00000  
      59  cha092                  92   17574.96960      40.69930      -2.42411             0        59      s40696n2438w         0         0         0         1           sdc         8           tot       1.00000  
      60  cha093                  93   33894.85120      40.71980      -1.66821             0        60      s40718n1644w         0         0         0         1           sdc        49           tot       1.00000  
      61  cha094                  94   34192.12480      40.35443      -2.28825             0        61      s40340n2260w         0         0         0         1           sdc        56           tot       1.00000  
      62  cha095                  95   12876.51680      40.66930      -2.35132             0        62      s40694n2372w         0         0         0         1           sdc        59           tot       1.00000  
      63  cha096                  96   36316.16320      40.81782      -2.33090             0        63      s40791n2301w         0         0         0         1           sdc        55           tot       1.00000  
      64  cha097                  97   29497.85920      40.68087      -1.61781             0        64      s40669n1648w         0         0         0         1           sdc        60           tot       1.00000  
      65  cha098                  98   29650.15360      40.28131      -2.57868             0        65      s40300n2590w         0         0         0         1           sdc        58           tot       1.00000  
      66  cha100                 100   22205.61920      40.44526      -2.11794             0        66      s40435n2123w         0         0         0         1           sdc        44           tot       1.00000  
      67  cha101                 101   32046.21760      40.83932      -2.31067             0        67      s40841n2298w         0         0         0         1           sdc        63           tot       1.00000  
      68  cha102                 102   20616.82400      40.66870      -1.97349             0        68      s40681n1977w         0         0         0         1           sdc        26           tot       1.00000  
      69  cha103                 103   26897.94560      40.14820      -2.60812             0        69      s40150n2598w         0         0         0         1           sdc        53           tot       1.00000  
      70  cha105                 105   25538.74880      40.25784      -2.53752             0        70      s40248n2527w         0         0         0         1           sdc        65           tot       1.00000  
      71  cha106                 106   24559.81280      40.36413      -2.25415             0        71      s40340n2260w         0         0         0         1           sdc        61           tot       1.00000  
      72  cha107                 107   21698.24640      40.51473      -2.05374             0        72      s40533n2051w         0         0         0         1           sdc        47           tot       1.00000  
      73  cha108                 108   21105.01120      40.24275      -2.50853             0        73      s40248n2527w         0         0         0         1           sdc        70           tot       1.00000  
      74  cha109                 109   21351.48000      40.66687      -1.63340             0        74      s40669n1648w         0         0         0         1           sdc        64           tot       1.00000  
      75  cha111                 111   18354.55520      40.52356      -1.85382             0        75      s40526n1854w         0         0         0         1           sdc        45           tot       1.00000  
      76  cha113                 113   20374.35680      40.14277      -2.53992             0        76      s40148n2532w         0         0         0         1           sdc        69           tot       1.00000  
      77  cha115                 115   13247.59135      40.48788      -2.54812             0        77      s40500n2580w         0         0         0         1           res         2           tot       1.00000  
      78  cha116                 116   16059.41600      40.85978      -2.27012             0        78      s40841n2298w         0         0         0         1           sdc        67           tot       1.00000  
      79  cha117                 117   15851.88000      40.78247      -2.00418             0        79      s40783n2037w         0         0         0         1           sdc        19           tot       1.00000  
      80  cha118                 118   15076.54400      40.87458      -2.29591             0        80      s40891n2295w         0         0         0         1           sdc        67           tot       1.00000  
      81  cha119                 119   14198.15680      40.61938      -1.62617             0        81      s40619n1651w         0         0         0         1           sdc        74           tot       1.00000  
      82  cha120                 120    9472.08320      40.12103      -2.46195             0        82      s40146n2467w         0         0         0         1           sdc        76           tot       1.00000  
      83  cha122                 122   15496.17600      40.36070      -2.19589             0        83      s40337n2194w         0         0         0         1           sdc        71           tot       1.00000  
      84  cha123                 123   11479.63520      40.59006      -1.63910             0        84      s40569n1654w         0         0         0         1           sdc        81           tot       1.00000  
      85  cha124                 124    7984.46400      40.91155      -2.29255             0        85      s40891n2295w         0         0         0         1           sdc        80           tot       1.00000  
      86  cha127                 127   17186.83200      40.22731      -2.45590             0        86      s40246n2462w         0         0         0         1           sdc        73           tot       1.00000  
      87  cha128                 128   18258.64203      40.38766      -2.47950             0        87      s40396n2454w         0         0         0         1           res         2           tot       1.00000  
      88  cha129                 129    8563.13840      40.36949      -2.14271             0        88      s40385n2126w         0         0         0         1           sdc        83           tot       1.00000  
      89  cha131                 131    8518.79355      40.56080      -2.62809             0        89      s40551n2643w         0         0         0         1           res         1           tot       1.00000  
      90  cha133                 133   12525.06240      40.38842      -1.98453             0        90      s40381n1995w         0         0         0         1           sdc        66           tot       1.00000  
      91  cha134                 134   15410.00000      40.75765      -1.80923             0        91      s40776n1839w         0         0         0         1           sdc        34           tot       1.00000  
      92  cha135                 135    8324.66960      40.49731      -1.79659             0        92      s40474n1792w         0         0         0         1           sdc        75           tot       1.00000  
      93  cha136                 136    8026.08320      40.89182      -2.22703             0        93      s40889n2229w         0         0         0         1           sdc        78           tot       1.00000  
      94  cha139                 139    7761.99280      40.68730      -2.30928             0        94      s40691n2306w         0         0         0         1           sdc        62           tot       1.00000  
      95  cha141                 141    9977.64240      40.22061      -2.40027             0        95      s40244n2396w         0         0         0         1           sdc        86           tot       1.00000  
      96  cha142                 142    5968.91280      40.56687      -2.07859             0        96      s40583n2049w         0         0         0         1           sdc        47           tot       1.00000  
      97  cha143                 143   10331.03440      40.51495      -2.51688             0        97      s40498n2514w         0         0         0         1           sdc        77           tot       1.00000  
      98  cha144                 144    4692.95360      40.83818      -1.86168             0        98      s40826n1836w         0         0         0         1           sdc        27           tot       1.00000  
      99  cha147                 147    8893.40880      40.35127      -2.45181             0        99      s40346n2456w         0         0         0         1           sdc        87           tot       1.00000  
     100  cha148                 148   11671.29760      40.43566      -1.94959             0       100      s40428n1926w         0         0         0         1           sdc        72           tot       1.00000  
     101  cha152                 152    4131.46400      40.91279      -2.31139             0       101      s40891n2295w         0         0         0         1           sdc        80           tot       1.00000  
     102  cha153                 153    6127.52652      40.69465      -2.70716             0       102      s40703n2702w         0         0         0         1           res         1           tot       1.00000  
     103  cha155                 155    8841.41520      40.55464      -2.32615             0       103      s40541n2314w         0         0         0         1           sdc        31           tot       1.00000  
     104  cha156                 156    4174.45840      40.74599      -2.55437             0       104      s40749n2567w         0         0         0         1           sdc         4           tot       1.00000  
     105  cha157                 157    5609.77200      40.22668      -2.34527             0       105      s40242n2331w         0         0         0         1           sdc        95           tot       1.00000  
     106  cha158                 158    6291.24600      40.94639      -2.29159             0       106      s40941n2292w         0         0         0         1           sdc        85           tot       1.00000  
     107  cha159                 159    4549.90960      40.36648      -2.43123             0       107      s40346n2456w         0         0         0         1           sdc        87           tot       1.00000  
     108  cha162                 162    4892.67760      40.10520      -2.44851             0       108      s40096n2470w         0         0         0         1           sdc        82           tot       1.00000  
     109  cha166                 166    8605.38320      40.14737      -2.43540             0       109      s40146n2467w         0         0         0         1           sdc        76           tot       1.00000  
     110  cha168                 168    4095.15600      40.16534      -2.55459             0       110      s40148n2532w         0         0         0         1           sdc        69           tot       1.00000  
     111  cha169                 169   12047.30134      40.26050      -2.79768             0       111      s40255n2789w         0         0         0         1           res         3           tot       1.00000  
     112  cha170                 170    3127.78160      40.19053      -2.72300             0       112      s40204n2726w         0         0         0         1           sdc        46           tot       1.00000  
     113  cha171                 171    2547.85680      40.20454      -2.36385             0       113      s40192n2334w         0         0         0         1           sdc        95           tot       1.00000  
     114  cha173                 173    1733.71260      40.22428      -2.32914             0       114      s40242n2331w         0         0         0         1           sdc       105           tot       1.00000  
     115  cha175                 175    2881.56360      40.24559      -2.51468             0       115      s40248n2527w         0         0         0         1           sdc        70           tot       1.00000  
     116  cha176                 176    2221.83660      40.23924      -2.47902             0       116      s40246n2462w         0         0         0         1           sdc        73           tot       1.00000  
     117  cha177                 177    3301.19660      40.23484      -2.40735             0       117      s40244n2396w         0         0         0         1           sdc        86           tot       1.00000  
     118  cha178                 178    3158.82152      40.26591      -2.65551             0       118      s40252n2658w         0         0         0         1           res         2           tot       1.00000  
     119  cha180                 180    6988.28080      40.32232      -2.21518             0       119      s40337n2194w         0         0         0         1           sdc        71           tot       1.00000  
     120  cha182                 182    3964.17320      40.32017      -2.42352             0       120      s40294n2394w         0         0         0         1           sdc        99           tot       1.00000  
     121  cha184                 184    2070.48140      40.32579      -2.44525             0       121      s40346n2456w         0         0         0         1           sdc        99           tot       1.00000  
     122  cha185                 185    3977.92120      40.34074      -1.91696             0       122      s40328n1932w         0         0         0         1           sdc        90           tot       1.00000  
     123  cha186                 186   10021.38720      40.39731      -1.78468             0       123      s40374n1798w         0         0         0         1           sdc        57           tot       1.00000  
     124  cha187                 187    2571.47880      40.31698      -2.60303             0       124      s40300n2590w         0         0         0         1           sdc        54           tot       1.00000  
     125  cha188                 188    2459.49340      40.35039      -1.95022             0       125      s40328n1932w         0         0         0         1           sdc        90           tot       1.00000  
     126  cha189                 189    5367.80360      40.35875      -2.09994             0       126      s40385n2126w         0         0         0         1           sdc        88           tot       1.00000  
     127  cha190                 190    1723.71380      40.36465      -2.40194             0       127      s40344n2391w         0         0         0         1           sdc       107           tot       1.00000  
     128  cha191                 191    1534.42590      40.36485      -2.39753             0       128      s40344n2391w         0         0         0         1           sdc       107           tot       1.00000  
     129  cha192                 192    1991.17920      40.36832      -2.15958             0       129      s40387n2191w         0         0         0         1           sdc        83           tot       1.00000  
     130  cha195                 195    2193.84040      40.39130      -2.31393             0       130      s40392n2323w         0         0         0         1           sdc        56           tot       1.00000  
     131  cha197                 197    4293.91544      40.40600      -2.62018             0       131      s40402n2651w         0         0         0         1           res         2           tot       1.00000  
     132  cha199                 199    1539.70951      40.42413      -2.80308             0       132      s40405n2782w         0         0         0         1           res         3           tot       1.00000  
     133  cha201                 201    2549.35660      40.42045      -2.02884             0       133      s40433n2057w         0         0         0         1           sdc        66           tot       1.00000  
     134  cha202                 202    3839.18920      40.43622      -2.24068             0       134      s40440n2254w         0         0         0         1           sdc        37           tot       1.00000  
     135  cha203                 203    3197.77260      40.45113      -1.77413             0       135      s40474n1792w         0         0         0         1           sdc        92           tot       1.00000  
     136  cha204                 204    1709.77687      40.43402      -2.47384             0       136      s40446n2451w         0         0         0         1           res         2           tot       1.00000  
     137  cha205                 205    3725.07920      40.47161      -1.76225             0       137      s40474n1792w         0         0         0         1           sdc        92           tot       1.00000  
     138  cha210                 210    7486.40320      40.50626      -1.74863             0       138      s40521n1723w         0         0         0         1           sdc        75           tot       1.00000  