fire.ops: written by SWAT+ editor v2.1.4 on 2022-11-22 14:57 for SWAT+ rev.60.5.4
name                   chg_cn2     frac_burn  description
grass                  8.00000       1.00000  
tree_intense           8.00000       0.90000  
tree_low               6.00000       0.70000  
