hru.con: written by SWAT+ editor v2.1.4 on 2022-11-22 14:57 for SWAT+ rev.60.5.4
      id  name                gis_id          area           lat           lon          elev       hru               wst       cst      ovfl      rule   out_tot  
       1  hru0001                  1       2.97516      40.98108      -2.29351    1074.75556         1      s40991n2290w         0         0         0         0  
       2  hru0002                  2       1.58675      40.98171      -2.29448    1082.45833         2      s40991n2290w         0         0         0         0  
       3  hru0003                  3       3.29957      40.98258      -2.29583    1087.06723         3      s40991n2290w         0         0         0         0  
       4  hru0004                  4       2.09035      40.98326      -2.29699    1097.86996         4      s40991n2290w         0         0         0         0  
       5  hru0005                  5       2.94649      40.98232      -2.29561    1082.71474         5      s40991n2290w         0         0         0         0  
       6  hru0006                  6       0.26247      40.98521      -2.29867    1095.23810         6      s40991n2290w         0         0         0         0  
       7  hru0007                  7       0.14998      40.98453      -2.29839    1095.08333         7      s40991n2290w         0         0         0         0  
       8  hru0008                  8       0.28746      40.98473      -2.29839    1101.95652         8      s40991n2290w         0         0         0         0  
       9  hru0009                  9       0.65616      40.98521      -2.29867    1095.23810         9      s40991n2290w         0         0         0         0  
      10  hru0010                 10       0.37495      40.98453      -2.29839    1095.08333        10      s40991n2290w         0         0         0         0  
      11  hru0011                 11       0.71866      40.98473      -2.29839    1101.95652        11      s40991n2290w         0         0         0         0  
      12  hru0012                 12       0.19685      40.98521      -2.29867    1095.23810        12      s40991n2290w         0         0         0         0  
      13  hru0013                 13       0.11249      40.98453      -2.29839    1095.08333        13      s40991n2290w         0         0         0         0  
      14  hru0014                 14       0.21560      40.98473      -2.29839    1101.95652        14      s40991n2290w         0         0         0         0  
      15  hru0015                 15      94.48197      41.01022      -2.30259    1236.94543        15      s40991n2290w         0         0         0         0  
      16  hru0016                 16     205.57278      41.00582      -2.29743    1230.89036        16      s40991n2290w         0         0         0         0  
      17  hru0017                 17      15.00562      40.99451      -2.29411    1191.06977        17      s40991n2290w         0         0         0         0  
      18  hru0018                 18      23.17821      41.01576      -2.29974    1267.14777        18      s40991n2290w         0         0         0         0  
      19  hru0019                 19       3.98251      41.01465      -2.30429    1258.96000        19      s40991n2290w         0         0         0         0  
      20  hru0020                 20      93.86933      40.99455      -2.31344    1212.58803        20      s40991n2290w         0         0         0         0  
      21  hru0021                 21     410.84357      40.99298      -2.30914    1210.09775        21      s40991n2290w         0         0         0         0  
      22  hru0022                 22     166.41974      40.98619      -2.30344    1195.38083        22      s40991n2290w         0         0         0         0  
      23  hru0023                 23     117.23661      41.00255      -2.28740    1235.58384        23      s40991n2290w         0         0         0         0  
      24  hru0024                 24      17.54810      41.00412      -2.29286    1216.32481        24      s40991n2290w         0         0         0         0  
      25  hru0025                 25      20.00750      40.99451      -2.29411    1191.06977        25      s40991n2290w         0         0         0         0  
      26  hru0026                 26     293.09153      41.00255      -2.28740    1235.58384        26      s40991n2290w         0         0         0         0  
      27  hru0027                 27      43.87026      41.00412      -2.29286    1216.32481        27      s40991n2290w         0         0         0         0  
      28  hru0028                 28      50.01874      40.99451      -2.29411    1191.06977        28      s40991n2290w         0         0         0         0  
      29  hru0029                 29      87.92746      41.00255      -2.28740    1235.58384        29      s40991n2290w         0         0         0         0  
      30  hru0030                 30      13.16108      41.00412      -2.29286    1216.32481        30      s40991n2290w         0         0         0         0  
      31  hru0031                 31      15.00562      40.99451      -2.29411    1191.06977        31      s40991n2290w         0         0         0         0  
      32  hru0032                 32       1.16466      40.98250      -2.28057    1081.88235        32      s40991n2290w         0         0         0         0  
      33  hru0033                 33       0.20553      40.98247      -2.28115    1084.00000        33      s40991n2290w         0         0         0         0  
      34  hru0034                 34       3.76803      40.98026      -2.28556    1073.76364        34      s40991n2290w         0         0         0         0  
      35  hru0035                 35       2.87740      40.98018      -2.28579    1077.14286        35      s40991n2290w         0         0         0         0  
      36  hru0036                 36       1.23317      40.98025      -2.28584    1083.11111        36      s40991n2290w         0         0         0         0  
      37  hru0037                 37     142.90998      40.98590      -2.24815    1248.37376        37      s40989n2223w         0         0         0         0  
      38  hru0038                 38     324.93012      40.98600      -2.25222    1236.56296        38      s40989n2223w         0         0         0         0  
      39  hru0039                 39      95.93911      40.98429      -2.26397    1177.30020        39      s40991n2290w         0         0         0         0  
      40  hru0040                 40     170.03296      40.98679      -2.27059    1210.72627        40      s40991n2290w         0         0         0         0  
      41  hru0041                 41     127.66436      40.98540      -2.27243    1190.32055        41      s40991n2290w         0         0         0         0  
      42  hru0042                 42      98.77893      40.99144      -2.26330    1225.46254        42      s40991n2290w         0         0         0         0  
      43  hru0043                 43      73.36912      40.99264      -2.26327    1215.88284        43      s40991n2290w         0         0         0         0  
      44  hru0044                 44     246.94733      40.99144      -2.26330    1225.46254        44      s40991n2290w         0         0         0         0  
      45  hru0045                 45     183.42281      40.99264      -2.26327    1215.88284        45      s40991n2290w         0         0         0         0  
      46  hru0046                 46      74.08420      40.99144      -2.26330    1225.46254        46      s40991n2290w         0         0         0         0  
      47  hru0047                 47      55.02684      40.99264      -2.26327    1215.88284        47      s40991n2290w         0         0         0         0  
      48  hru0048                 48      16.28332      40.90751      -2.32131     977.95082        48      s40891n2295w         0         0         0         0  
      49  hru0049                 49       6.07288      40.90503      -2.32432     988.54945        49      s40891n2295w         0         0         0         0  
      50  hru0050                 50       3.43454      40.90858      -2.32045     977.25490        50      s40891n2295w         0         0         0         0  
      51  hru0051                 51       1.01016      40.90815      -2.31979     983.60000        51      s40891n2295w         0         0         0         0  
      52  hru0052                 52       2.58722      40.91100      -2.31888     978.28205        52      s40891n2295w         0         0         0         0  
      53  hru0053                 53       3.78132      40.91101      -2.31792     973.21053        53      s40891n2295w         0         0         0         0  
      54  hru0054                 54       2.98525      40.90484      -2.32655     990.13333        54      s40891n2295w         0         0         0         0  
      55  hru0055                 55       2.65355      40.90604      -2.32420     983.82500        55      s40891n2295w         0         0         0         0  
      56  hru0056                 56       2.45454      40.90088      -2.33320     993.70270        56      s40893n2361w         0         0         0         0  
      57  hru0057                 57       1.65847      40.90188      -2.32954     994.64000        57      s40893n2361w         0         0         0         0  
      58  hru0058                 58       1.39312      40.90156      -2.33179     994.71429        58      s40893n2361w         0         0         0         0  
      59  hru0059                 59       4.17935      40.90156      -2.33179     990.50794        59      s40893n2361w         0         0         0         0  
      60  hru0060                 60     165.26750      40.89559      -2.37379    1188.83150        60      s40893n2361w         0         0         0         0  
      61  hru0061                 61      83.46990      40.89805      -2.36694    1171.16725        61      s40893n2361w         0         0         0         0  
      62  hru0062                 62      74.23586      40.89414      -2.36186    1136.18609        62      s40893n2361w         0         0         0         0  
      63  hru0063                 63     296.65262      40.90129      -2.36780    1190.18137        63      s40893n2361w         0         0         0         0  
      64  hru0064                 64     205.91182      40.90289      -2.36365    1166.61476        64      s40893n2361w         0         0         0         0  
      65  hru0065                 65     193.04233      40.90142      -2.35232    1134.15782        65      s40893n2361w         0         0         0         0  
      66  hru0066                 66      50.67816      40.88883      -2.36763    1110.72597        66      s40893n2361w         0         0         0         0  
      67  hru0067                 67      19.12246      40.89656      -2.35291    1046.58175        67      s40893n2361w         0         0         0         0  
      68  hru0068                 68      10.39738      40.90102      -2.33599    1030.98601        68      s40893n2361w         0         0         0         0  
      69  hru0069                 69     113.47184      40.89302      -2.37634    1154.75000        69      s40893n2361w         0         0         0         0  
      70  hru0070                 70      40.67119      40.90129      -2.36046    1109.90173        70      s40893n2361w         0         0         0         0  
      71  hru0071                 71      39.33556      40.89843      -2.34624    1063.24399        71      s40893n2361w         0         0         0         0  
      72  hru0072                 72      51.40525      40.90315      -2.33519    1063.52475        72      s40893n2361w         0         0         0         0  
      73  hru0073                 73      96.63023      40.88654      -2.38303    1174.63732        73      s40893n2361w         0         0         0         0  
      74  hru0074                 74      99.61130      40.89805      -2.33599    1091.50146        74      s40893n2361w         0         0         0         0  
      75  hru0075                 75      46.97000      40.89759      -2.33941    1089.50774        75      s40893n2361w         0         0         0         0  
      76  hru0076                 76      63.47494      40.89067      -2.35327    1164.93814        76      s40893n2361w         0         0         0         0  
      77  hru0077                 77      13.28955      40.95498      -2.29342    1014.07143        77      s40941n2292w         0         0         0         0  
      78  hru0078                 78       7.81309      40.96450      -2.29129    1048.26168        78      s40941n2292w         0         0         0         0  
      79  hru0079                 79       9.78462      40.95166      -2.29338    1012.94030        79      s40941n2292w         0         0         0         0  
      80  hru0080                 80      11.31803      40.95700      -2.29309    1014.99355        80      s40941n2292w         0         0         0         0  
      81  hru0081                 81      15.77222      40.95624      -2.29384    1007.49537        81      s40941n2292w         0         0         0         0  
      82  hru0082                 82       9.27348      40.95720      -2.29304    1024.37795        82      s40941n2292w         0         0         0         0  
      83  hru0083                 83      26.49621      40.92883      -2.29313     976.76596        83      s40941n2292w         0         0         0         0  
      84  hru0084                 84     102.60233      40.92734      -2.29454     968.49058        84      s40941n2292w         0         0         0         0  
      85  hru0085                 85     470.02963      40.95753      -2.29696    1158.94193        85      s40941n2292w         0         0         0         0  
      86  hru0086                 86     487.57567      40.95679      -2.29918    1119.50152        86      s40941n2292w         0         0         0         0  
      87  hru0087                 87     110.89462      40.96356      -2.32561    1169.02551        87      s40943n2358w         0         0         0         0  
      88  hru0088                 88      69.78063      40.96270      -2.32392    1161.82027        88      s40941n2292w         0         0         0         0  
      89  hru0089                 89     980.80308      40.95745      -2.29290    1170.72726        89      s40941n2292w         0         0         0         0  
      90  hru0090                 90     686.36481      40.95805      -2.29362    1144.84100        90      s40941n2292w         0         0         0         0  
      91  hru0091                 91      10.64122      40.90980      -2.30471     961.78947        91      s40891n2295w         0         0         0         0  
      92  hru0092                 92      29.92344      40.90959      -2.30413     956.23797        92      s40891n2295w         0         0         0         0  
      93  hru0093                 93      12.08139      40.90498      -2.29957     957.01325        93      s40891n2295w         0         0         0         0  
      94  hru0094                 94      31.12357      40.90505      -2.29728     949.61954        94      s40891n2295w         0         0         0         0  
      95  hru0095                 95      18.46398      40.92320      -2.32653     988.40149        95      s40943n2358w         0         0         0         0  
      96  hru0096                 96       5.01067      40.92051      -2.32200     986.06849        96      s40941n2292w         0         0         0         0  
      97  hru0097                 97      14.31733      40.92022      -2.32063     984.28365        97      s40941n2292w         0         0         0         0  
      98  hru0098                 98      21.54483      40.92037      -2.32081     979.67412        98      s40941n2292w         0         0         0         0  
      99  hru0099                 99      36.64977      40.94087      -2.34203    1084.79681        99      s40943n2358w         0         0         0         0  
     100  hru0100                100     182.73779      40.94146      -2.34431    1074.29565       100      s40943n2358w         0         0         0         0  
     101  hru0101                101     120.68141      40.94091      -2.34478    1046.40351       101      s40943n2358w         0         0         0         0  
     102  hru0102                102      67.63340      40.94481      -2.34623    1050.82532       102      s40943n2358w         0         0         0         0  
     103  hru0103                103     149.85596      40.93985      -2.34270    1059.47831       103      s40943n2358w         0         0         0         0  
     104  hru0104                104     150.93230      40.93971      -2.33893    1108.93375       104      s40943n2358w         0         0         0         0  
     105  hru0105                105     236.00749      40.94150      -2.34113    1096.93247       105      s40943n2358w         0         0         0         0  
     106  hru0106                106      74.83269      40.93566      -2.34796    1099.79805       106      s40943n2358w         0         0         0         0  
     107  hru0107                107      37.89090      40.93549      -2.34025    1105.95568       107      s40943n2358w         0         0         0         0  
     108  hru0108                108      22.26729      40.93271      -2.36198    1137.33115       108      s40943n2358w         0         0         0         0  
     109  hru0109                109     201.42941      40.93122      -2.34218    1129.77747       109      s40943n2358w         0         0         0         0  
     110  hru0110                110     154.86554      40.92807      -2.33634    1112.28876       110      s40943n2358w         0         0         0         0  
     111  hru0111                111      72.16923      40.93265      -2.33607    1129.91740       111      s40943n2358w         0         0         0         0  
     112  hru0112                112      56.23625      40.92454      -2.35994    1138.95209       112      s40943n2358w         0         0         0         0  
     113  hru0113                113      21.21689      40.92494      -2.35862    1135.22726       113      s40943n2358w         0         0         0         0  
     114  hru0114                114      13.72455      40.92147      -2.35730    1134.19678       114      s40943n2358w         0         0         0         0  
     115  hru0115                115     108.51836      40.92939      -2.34173    1145.06499       115      s40943n2358w         0         0         0         0  
     116  hru0116                116     116.91422      40.93341      -2.34101    1129.32284       116      s40943n2358w         0         0         0         0  
     117  hru0117                117      84.70331      40.91903      -2.34345    1183.76883       117      s40943n2358w         0         0         0         0  
     118  hru0118                118      52.82823      40.92065      -2.33937    1170.88032       118      s40943n2358w         0         0         0         0  
     119  hru0119                119      22.85135      40.93102      -2.34312    1150.35719       119      s40943n2358w         0         0         0         0  
     120  hru0120                120     127.51491      40.91381      -2.34141    1192.20806       120      s40893n2361w         0         0         0         0  
     121  hru0121                121      15.07605      40.91903      -2.35034    1178.72397       121      s40943n2358w         0         0         0         0  
     122  hru0122                122      12.70331      40.92243      -2.34291    1140.61782       122      s40943n2358w         0         0         0         0  
     123  hru0123                123       4.74549      40.92300      -2.33285    1097.99231       123      s40943n2358w         0         0         0         0  
     124  hru0124                124      43.69499      40.93717      -2.33666    1138.44444       124      s40943n2358w         0         0         0         0  
     125  hru0125                125      39.31454      40.94504      -2.33322    1118.62860       125      s40943n2358w         0         0         0         0  
     126  hru0126                126      20.66112      40.92820      -2.32431    1146.74558       126      s40941n2292w         0         0         0         0  
     127  hru0127                127       4.52282      40.91903      -2.35034    1178.72397       127      s40943n2358w         0         0         0         0  
     128  hru0128                128       3.81099      40.92243      -2.34291    1140.61782       128      s40943n2358w         0         0         0         0  
     129  hru0129                129       1.42365      40.92300      -2.33285    1097.99231       129      s40943n2358w         0         0         0         0  
     130  hru0130                130      13.10850      40.93717      -2.33666    1138.44444       130      s40943n2358w         0         0         0         0  
     131  hru0131                131      11.79436      40.94504      -2.33322    1118.62860       131      s40943n2358w         0         0         0         0  
     132  hru0132                132       6.19834      40.92820      -2.32431    1146.74558       132      s40941n2292w         0         0         0         0  
     133  hru0133                133      18.16279      40.91071      -2.29055     954.82310       133      s40891n2295w         0         0         0         0  
     134  hru0134                134      12.45823      40.91165      -2.29062     962.66842       134      s40891n2295w         0         0         0         0  
     135  hru0135                135      12.06093      40.90640      -2.29218     947.93750       135      s40891n2295w         0         0         0         0  
     136  hru0136                136      15.08657      40.91465      -2.29136     958.98305       136      s40891n2295w         0         0         0         0  
     137  hru0137                137       4.41090      40.91634      -2.28989     968.13043       137      s40941n2292w         0         0         0         0  
     138  hru0138                138       1.21063      40.91704      -2.29096     969.26316       138      s40941n2292w         0         0         0         0  
     139  hru0139                139       2.03895      40.91865      -2.28923     971.78125       139      s40941n2292w         0         0         0         0  
     140  hru0140                140     293.22306      40.94334      -2.25830    1180.94360       140      s40939n2226w         0         0         0         0  
     141  hru0141                141     118.97684      40.94100      -2.26125    1177.92340       141      s40941n2292w         0         0         0         0  
     142  hru0142                142      62.18860      40.94252      -2.25318    1177.52917       142      s40939n2226w         0         0         0         0  
     143  hru0143                143      55.10062      40.94897      -2.25651    1193.75345       143      s40939n2226w         0         0         0         0  
     144  hru0144                144      12.99463      40.95025      -2.26033    1194.66234       144      s40941n2292w         0         0         0         0  
     145  hru0145                145      10.04131      40.94509      -2.25192    1182.47899       145      s40939n2226w         0         0         0         0  
     146  hru0146                146     194.71699      40.91784      -2.26799    1124.22411       146      s40941n2292w         0         0         0         0  
     147  hru0147                147     164.35680      40.91551      -2.26695    1158.01953       147      s40941n2292w         0         0         0         0  
     148  hru0148                148      59.75844      40.90910      -2.26250    1193.65546       148      s40891n2295w         0         0         0         0  
     149  hru0149                149      16.79177      40.90165      -2.25560    1169.71357       149      s40889n2229w         0         0         0         0  
     150  hru0150                150      23.79537      40.90159      -2.25467    1196.49291       150      s40889n2229w         0         0         0         0  
     151  hru0151                151       4.55656      40.90568      -2.25720    1120.50000       151      s40889n2229w         0         0         0         0  
     152  hru0152                152     209.01108      40.92959      -2.25758    1172.42410       152      s40939n2226w         0         0         0         0  
     153  hru0153                153     164.28929      40.92780      -2.26417    1132.17899       153      s40941n2292w         0         0         0         0  
     154  hru0154                154     137.45622      40.92215      -2.25304    1205.37017       154      s40939n2226w         0         0         0         0  
     155  hru0155                155      20.79141      40.92713      -2.25679    1174.53166       155      s40939n2226w         0         0         0         0  
     156  hru0156                156      14.91851      40.92427      -2.26398    1132.62104       156      s40941n2292w         0         0         0         0  
     157  hru0157                157      21.73648      40.91822      -2.25536    1198.06832       157      s40939n2226w         0         0         0         0  
     158  hru0158                158      15.59356      40.92713      -2.25679    1174.53166       158      s40939n2226w         0         0         0         0  
     159  hru0159                159      11.18889      40.92427      -2.26398    1132.62104       159      s40941n2292w         0         0         0         0  
     160  hru0160                160      16.30236      40.91822      -2.25536    1198.06832       160      s40939n2226w         0         0         0         0  
     161  hru0161                161      17.10033      40.89112      -2.28603     946.94527       161      s40891n2295w         0         0         0         0  
     162  hru0162                162      26.79903      40.89177      -2.28703     941.62222       162      s40891n2295w         0         0         0         0  
     163  hru0163                163      91.85582      40.88999      -2.28773     936.25443       163      s40891n2295w         0         0         0         0  
     164  hru0164                164      31.76003      40.88805      -2.28502     943.46361       164      s40891n2295w         0         0         0         0  
     165  hru0165                165      22.36313      40.88285      -2.28649     929.70438       165      s40891n2295w         0         0         0         0  
     166  hru0166                166       7.99849      40.88141      -2.28515     935.44898       166      s40891n2295w         0         0         0         0  
     167  hru0167                167      13.84490      40.86377      -2.29140     922.90643       167      s40841n2298w         0         0         0         0  
     168  hru0168                168      26.47534      40.87032      -2.29260     920.14373       168      s40891n2295w         0         0         0         0  
     169  hru0169                169       6.39618      40.85903      -2.29138     924.96203       169      s40841n2298w         0         0         0         0  
     170  hru0170                170     326.20557      40.87992      -2.28095    1118.98858       170      s40891n2295w         0         0         0         0  
     171  hru0171                171     113.71599      40.89185      -2.27327    1181.89515       171      s40891n2295w         0         0         0         0  
     172  hru0172                172     266.36772      40.87665      -2.27873    1072.00494       172      s40891n2295w         0         0         0         0  
     173  hru0173                173      47.20937      40.89455      -2.31857    1147.80571       173      s40891n2295w         0         0         0         0  
     174  hru0174                174     189.10725      40.88492      -2.30718    1094.37518       174      s40891n2295w         0         0         0         0  
     175  hru0175                175      58.74195      40.87980      -2.29372    1056.09874       175      s40891n2295w         0         0         0         0  
     176  hru0176                176      44.46700      40.87889      -2.31163    1065.96486       176      s40891n2295w         0         0         0         0  
     177  hru0177                177      27.56101      40.87960      -2.30724    1077.37113       177      s40891n2295w         0         0         0         0  
     178  hru0178                178      33.65354      40.88831      -2.32159    1144.88778       178      s40891n2295w         0         0         0         0  
     179  hru0179                179     272.76189      40.88417      -2.31343    1110.82455       179      s40891n2295w         0         0         0         0  
     180  hru0180                180      95.50830      40.87608      -2.29300    1039.52462       180      s40891n2295w         0         0         0         0  
     181  hru0181                181      32.77679      40.88621      -2.29637    1009.95679       181      s40891n2295w         0         0         0         0  
     182  hru0182                182      77.08616      40.88599      -2.31158    1064.28346       182      s40891n2295w         0         0         0         0  