ptf #
hyd-sed-lte.cha: written by SWAT+ editor v2.1.4 on 2022-11-22 14:57 for SWAT+ rev.60.5.4
name order wd dp slp len mann k erod_fact cov_fact wd_rto eq_slp d50 clay carbon dry_bd side_slp bed_load fps fpn n_conc p_conc p_bio description
hydcha001 5 270.30267 4.58617 0.17174 0.18110  0.05000  0.00000 0.01000 0.00500 58.93861 0.00100 12.00000 50.00000 0.04000 1.00000 0.50000 0.50000 0.00001 0.10000 0.00000 0.00000 0.00000 
hydcha006 4 182.67145 3.53181 0.26281 0.19570  0.05000  0.00000 0.01000 0.00500 51.72177 0.00100 12.00000 50.00000 0.04000 1.00000 0.50000 0.50000 0.00001 0.10000 0.00000 0.00000 0.00000 
hydcha013 4 168.44328 3.34595 0.00974 19.96560 0.05000  0.00000 0.01000 0.00500 50.34245 0.00100 12.00000 50.00000 0.04000 1.00000 0.50000 0.50000 0.00001 0.10000 0.00000 0.00000 0.00000 
hydcha015 4 165.90080 3.31219 0.00967 9.71730  0.05000  0.00000 0.01000 0.00500 50.08788 0.00100 12.00000 50.00000 0.04000 1.00000 0.50000 0.50000 0.00001 0.10000 0.00000 0.00000 0.00000 
hydcha016 4 163.55190 3.28086 0.00157 9.10520  0.05000  0.00000 0.01000 0.00500 49.85036 0.00100 12.00000 50.00000 0.04000 1.00000 0.50000 0.50000 0.00001 0.10000 0.00000 0.00000 0.00000 
hydcha017 4 161.80190 3.25741 0.01026 1.00710  0.05000  0.00000 0.01000 0.00500 49.67192 0.00100 12.00000 50.00000 0.04000 1.00000 0.50000 0.50000 0.00001 0.10000 0.00000 0.00000 0.00000 
hydcha018 4 161.30667 3.25076 0.00662 4.55820  0.05000  0.00000 0.01000 0.00500 49.62120 0.00100 12.00000 50.00000 0.04000 1.00000 0.50000 0.50000 0.00001 0.10000 0.00000 0.00000 0.00000 
hydcha019 4 160.65534 3.24200 0.02508 8.73100  #manna # 0.00000 0.01000 0.00500 49.55432 0.00100 12.00000 50.00000 0.04000 1.00000 0.50000 0.50000 0.00001 0.10000 0.00000 0.00000 0.00000 
hydcha021 4 154.13285 3.15365 0.00220 11.07050 #manna # 0.00000 0.01000 0.00500 48.87441 0.00100 12.00000 50.00000 0.04000 1.00000 0.50000 0.50000 0.00001 0.10000 0.00000 0.00000 0.00000 
hydcha022 4 151.12681 3.11251 0.02337 8.44560  #manna # 0.00000 0.01000 0.00500 48.55459 0.00100 12.00000 50.00000 0.04000 1.00000 0.50000 0.50000 0.00001 0.10000 0.00000 0.00000 0.00000 
hydcha024 4 149.93662 3.09615 0.00492 5.92910  #manna # 0.00000 0.01000 0.00500 48.42679 0.00100 12.00000 50.00000 0.04000 1.00000 0.50000 0.50000 0.00001 0.10000 0.00000 0.00000 0.00000 
hydcha026 4 166.74997 3.32349 0.38744 0.07500  0.05000  0.00000 0.01000 0.00500 50.17319 0.00100 12.00000 50.00000 0.04000 1.00000 0.50000 0.50000 0.00001 0.10000 0.00000 0.00000 0.00000 
hydcha028 4 136.26383 2.90494 0.00279 7.17050  #manna # 0.00000 0.01000 0.00500 46.90761 0.00100 12.00000 50.00000 0.04000 1.00000 0.50000 0.50000 0.00001 0.10000 0.00000 0.00000 0.00000 
hydcha029 4 134.52376 2.88016 0.03122 7.37660  #manna # 0.00000 0.01000 0.00500 46.70709 0.00100 12.00000 50.00000 0.04000 1.00000 0.50000 0.50000 0.00001 0.10000 0.00000 0.00000 0.00000 
hydcha031 4 131.68215 2.83945 0.00318 6.19550  #manna # 0.00000 0.01000 0.00500 46.37587 0.00100 12.00000 50.00000 0.04000 1.00000 0.50000 0.50000 0.00001 0.10000 0.00000 0.00000 0.00000 
hydcha034 4 130.61777 2.82413 0.00462 7.84720  #manna # 0.00000 0.01000 0.00500 46.25058 0.00100 12.00000 50.00000 0.04000 1.00000 0.50000 0.50000 0.00001 0.10000 0.00000 0.00000 0.00000 
hydcha035 3 95.80525  2.29691 0.00738 7.57650  #manna # 0.00000 0.01000 0.00500 41.71058 0.00100 12.00000 50.00000 0.04000 1.00000 0.50000 0.50000 0.00001 0.10000 0.00000 0.00000 0.00000 
hydcha037 3 74.26327  1.93820 0.03428 6.19620  #manna # 0.00000 0.01000 0.00500 38.31550 0.00100 12.00000 50.00000 0.04000 1.00000 0.50000 0.50000 0.00001 0.10000 0.00000 0.00000 0.00000 
hydcha038 3 90.94768  2.21859 0.00448 10.35260 #manna # 0.00000 0.01000 0.00500 40.99337 0.00100 12.00000 50.00000 0.04000 1.00000 0.50000 0.50000 0.00001 0.10000 0.00000 0.00000 0.00000 
hydcha042 3 80.31891  2.04219 0.00545 10.09230 #manna # 0.00000 0.01000 0.00500 39.32986 0.00100 12.00000 50.00000 0.04000 1.00000 0.50000 0.50000 0.00001 0.10000 0.00000 0.00000 0.00000 
hydcha043 3 78.62466  2.01337 0.00998 1.50280  #manna # 0.00000 0.01000 0.00500 39.05135 0.00100 12.00000 50.00000 0.04000 1.00000 0.50000 0.50000 0.00001 0.10000 0.00000 0.00000 0.00000 
hydcha044 3 77.49915  1.99411 0.00983 3.59610  #manna # 0.00000 0.01000 0.00500 38.86411 0.00100 12.00000 50.00000 0.04000 1.00000 0.50000 0.50000 0.00001 0.10000 0.00000 0.00000 0.00000 
hydcha046 4 105.85853 2.45490 0.01453 5.31840  0.05000  0.00000 0.01000 0.00500 43.12129 0.00100 12.00000 50.00000 0.04000 1.00000 0.50000 0.50000 0.00001 0.10000 0.00000 0.00000 0.00000 
hydcha047 3 76.05600  1.96927 0.00982 16.01490 #manna # 0.00000 0.01000 0.00500 38.62137 0.00100 12.00000 50.00000 0.04000 1.00000 0.50000 0.50000 0.00001 0.10000 0.00000 0.00000 0.00000 
hydcha048 4 104.79345 2.43841 0.00225 4.95740  0.05000  0.00000 0.01000 0.00500 42.97618 0.00100 12.00000 50.00000 0.04000 1.00000 0.50000 0.50000 0.00001 0.10000 0.00000 0.00000 0.00000 
hydcha049 3 72.80175  1.91269 0.00461 20.25750 #manna # 0.00000 0.01000 0.00500 38.06248 0.00100 12.00000 50.00000 0.04000 1.00000 0.50000 0.50000 0.00001 0.10000 0.00000 0.00000 0.00000 
hydcha050 3 71.01461  1.88126 0.00481 6.16440  #manna # 0.00000 0.01000 0.00500 37.74844 0.00100 12.00000 50.00000 0.04000 1.00000 0.50000 0.50000 0.00001 0.10000 0.00000 0.00000 0.00000 
hydcha051 3 67.70950  1.82243 0.01076 19.21210 0.05000  0.00000 0.01000 0.00500 37.15349 0.00100 12.00000 50.00000 0.04000 1.00000 0.50000 0.50000 0.00001 0.10000 0.00000 0.00000 0.00000 
hydcha052 3 56.23191  1.61017 0.00333 5.32730  #manna # 0.00000 0.01000 0.00500 34.92293 0.00100 12.00000 50.00000 0.04000 1.00000 0.50000 0.50000 0.00001 0.10000 0.00000 0.00000 0.00000 
hydcha053 3 67.02051  1.81004 0.00509 3.29260  #manna # 0.00000 0.01000 0.00500 37.02704 0.00100 12.00000 50.00000 0.04000 1.00000 0.50000 0.50000 0.00001 0.10000 0.00000 0.00000 0.00000 
hydcha055 3 63.62054  1.74830 0.00343 6.36090  0.05000  0.00000 0.01000 0.00500 36.39002 0.00100 12.00000 50.00000 0.04000 1.00000 0.50000 0.50000 0.00001 0.10000 0.00000 0.00000 0.00000 
hydcha057 3 69.40475  1.85272 0.00580 6.51260  0.05000  0.00000 0.01000 0.00500 37.46101 0.00100 12.00000 50.00000 0.04000 1.00000 0.50000 0.50000 0.00001 0.10000 0.00000 0.00000 0.00000 
hydcha058 3 57.34643  1.63138 0.01051 20.81660 #manna # 0.00000 0.01000 0.00500 35.15215 0.00100 12.00000 50.00000 0.04000 1.00000 0.50000 0.50000 0.00001 0.10000 0.00000 0.00000 0.00000 
hydcha060 3 65.81445  1.78826 0.00324 6.56370  #manna # 0.00000 0.01000 0.00500 36.80359 0.00100 12.00000 50.00000 0.04000 1.00000 0.50000 0.50000 0.00001 0.10000 0.00000 0.00000 0.00000 
hydcha062 3 55.74305  1.60083 0.00831 9.69160  #manna # 0.00000 0.01000 0.00500 34.82144 0.00100 12.00000 50.00000 0.04000 1.00000 0.50000 0.50000 0.00001 0.10000 0.00000 0.00000 0.00000 
hydcha063 3 53.54390  1.55844 0.00945 4.85630  #manna # 0.00000 0.01000 0.00500 34.35736 0.00100 12.00000 50.00000 0.04000 1.00000 0.50000 0.50000 0.00001 0.10000 0.00000 0.00000 0.00000 
hydcha065 2 42.83365  1.34299 0.00863 11.32150 0.05000  0.00000 0.01000 0.00500 31.89418 0.00100 12.00000 50.00000 0.04000 1.00000 0.50000 0.50000 0.00001 0.10000 0.00000 0.00000 0.00000 
hydcha067 3 52.92044  1.54632 0.00667 17.69550 #manna # 0.00000 0.01000 0.00500 34.22349 0.00100 12.00000 50.00000 0.04000 1.00000 0.50000 0.50000 0.00001 0.10000 0.00000 0.00000 0.00000 
hydcha068 3 52.46328  1.53740 0.01422 4.00960  #manna # 0.00000 0.01000 0.00500 34.12466 0.00100 12.00000 50.00000 0.04000 1.00000 0.50000 0.50000 0.00001 0.10000 0.00000 0.00000 0.00000 
hydcha069 3 47.84458  1.44579 0.03914 5.42990  #manna # 0.00000 0.01000 0.00500 33.09233 0.00100 12.00000 50.00000 0.04000 1.00000 0.50000 0.50000 0.00001 0.10000 0.00000 0.00000 0.00000 
hydcha071 3 50.35966  1.49602 0.01622 7.19470  #manna # 0.00000 0.01000 0.00500 33.66232 0.00100 12.00000 50.00000 0.04000 1.00000 0.50000 0.50000 0.00001 0.10000 0.00000 0.00000 0.00000 
hydcha072 3 48.00615  1.44904 0.02908 15.18070 #manna # 0.00000 0.01000 0.00500 33.12954 0.00100 12.00000 50.00000 0.04000 1.00000 0.50000 0.50000 0.00001 0.10000 0.00000 0.00000 0.00000 
hydcha073 3 51.78461  1.52411 0.00652 14.09770 #manna # 0.00000 0.01000 0.00500 33.97687 0.00100 12.00000 50.00000 0.04000 1.00000 0.50000 0.50000 0.00001 0.10000 0.00000 0.00000 0.00000 
hydcha074 2 37.05332  1.21927 0.01259 13.76950 #manna # 0.00000 0.01000 0.00500 30.38964 0.00100 12.00000 50.00000 0.04000 1.00000 0.50000 0.50000 0.00001 0.10000 0.00000 0.00000 0.00000 
hydcha075 3 45.73027  1.40288 0.00906 10.56290 #manna # 0.00000 0.01000 0.00500 32.59751 0.00100 12.00000 50.00000 0.04000 1.00000 0.50000 0.50000 0.00001 0.10000 0.00000 0.00000 0.00000 
hydcha076 2 53.44259  1.55647 0.00255 10.29620 0.05000  0.00000 0.01000 0.00500 34.33568 0.00100 12.00000 50.00000 0.04000 1.00000 0.50000 0.50000 0.00001 0.10000 0.00000 0.00000 0.00000 
hydcha078 3 45.10425  1.39004 0.01618 16.78880 #manna # 0.00000 0.01000 0.00500 32.44808 0.00100 12.00000 50.00000 0.04000 1.00000 0.50000 0.50000 0.00001 0.10000 0.00000 0.00000 0.00000 
hydcha079 2 48.57354  1.46044 0.01184 11.69000 0.05000  0.00000 0.01000 0.00500 33.25955 0.00100 12.00000 50.00000 0.04000 1.00000 0.50000 0.50000 0.00001 0.10000 0.00000 0.00000 0.00000 
hydcha080 2 48.21483  1.45324 0.00615 17.95620 #manna # 0.00000 0.01000 0.00500 33.17747 0.00100 12.00000 50.00000 0.04000 1.00000 0.50000 0.50000 0.00001 0.10000 0.00000 0.00000 0.00000 
hydcha081 2 28.26149  1.01784 0.03856 4.75130  #manna # 0.00000 0.01000 0.00500 27.76610 0.00100 12.00000 50.00000 0.04000 1.00000 0.50000 0.50000 0.00001 0.10000 0.00000 0.00000 0.00000 
hydcha082 2 47.42475  1.43732 0.00602 4.57640  0.05000  0.00000 0.01000 0.00500 32.99525 0.00100 12.00000 50.00000 0.04000 1.00000 0.50000 0.50000 0.00001 0.10000 0.00000 0.00000 0.00000 
hydcha084 2 44.12733  1.36990 0.00417 1.12340  0.05000  0.00000 0.01000 0.00500 32.21210 0.00100 12.00000 50.00000 0.04000 1.00000 0.50000 0.50000 0.00001 0.10000 0.00000 0.00000 0.00000 
hydcha085 2 42.01900  1.32591 0.01107 11.59100 0.05000  0.00000 0.01000 0.00500 31.69069 0.00100 12.00000 50.00000 0.04000 1.00000 0.50000 0.50000 0.00001 0.10000 0.00000 0.00000 0.00000 
hydcha086 2 44.54099  1.37845 0.00443 4.09960  0.05000  0.00000 0.01000 0.00500 32.31244 0.00100 12.00000 50.00000 0.04000 1.00000 0.50000 0.50000 0.00001 0.10000 0.00000 0.00000 0.00000 
hydcha087 3 46.16483  1.41175 0.00923 3.05290  #manna # 0.00000 0.01000 0.00500 32.70043 0.00100 12.00000 50.00000 0.04000 1.00000 0.50000 0.50000 0.00001 0.10000 0.00000 0.00000 0.00000 
hydcha088 2 46.11764  1.41079 0.00269 3.76850  0.05000  0.00000 0.01000 0.00500 32.68929 0.00100 12.00000 50.00000 0.04000 1.00000 0.50000 0.50000 0.00001 0.10000 0.00000 0.00000 0.00000 
hydcha089 2 25.78565  0.95749 0.01500 12.62030 #manna # 0.00000 0.01000 0.00500 26.93038 0.00100 12.00000 50.00000 0.04000 1.00000 0.50000 0.50000 0.00001 0.10000 0.00000 0.00000 0.00000 
hydcha090 2 42.08924  1.32739 0.01181 7.33080  0.05000  0.00000 0.01000 0.00500 31.70834 0.00100 12.00000 50.00000 0.04000 1.00000 0.50000 0.50000 0.00001 0.10000 0.00000 0.00000 0.00000 
hydcha092 2 28.67652  1.02778 0.01887 9.77160  #manna # 0.00000 0.01000 0.00500 27.90135 0.00100 12.00000 50.00000 0.04000 1.00000 0.50000 0.50000 0.00001 0.10000 0.00000 0.00000 0.00000 
hydcha093 2 42.52751  1.33659 0.00710 8.94560  #manna # 0.00000 0.01000 0.00500 31.81802 0.00100 12.00000 50.00000 0.04000 1.00000 0.50000 0.50000 0.00001 0.10000 0.00000 0.00000 0.00000 
hydcha094 2 42.75091  1.34126 0.00803 17.56440 0.05000  0.00000 0.01000 0.00500 31.87363 0.00100 12.00000 50.00000 0.04000 1.00000 0.50000 0.50000 0.00001 0.10000 0.00000 0.00000 0.00000 
hydcha095 2 23.79407  0.90753 0.01467 18.95440 #manna # 0.00000 0.01000 0.00500 26.21839 0.00100 12.00000 50.00000 0.04000 1.00000 0.50000 0.50000 0.00001 0.10000 0.00000 0.00000 0.00000 
hydcha096 3 44.32510  1.37399 0.00701 5.81090  #manna # 0.00000 0.01000 0.00500 32.26015 0.00100 12.00000 50.00000 0.04000 1.00000 0.50000 0.50000 0.00001 0.10000 0.00000 0.00000 0.00000 
hydcha097 2 39.12587  1.26433 0.00566 21.88120 #manna # 0.00000 0.01000 0.00500 30.94600 0.00100 12.00000 50.00000 0.04000 1.00000 0.50000 0.50000 0.00001 0.10000 0.00000 0.00000 0.00000 
hydcha098 2 39.24695  1.26693 0.00319 8.49420  0.05000  0.00000 0.01000 0.00500 30.97788 0.00100 12.00000 50.00000 0.04000 1.00000 0.50000 0.50000 0.00001 0.10000 0.00000 0.00000 0.00000 
hydcha100 2 32.99647  1.12857 0.00597 21.36530 #manna # 0.00000 0.01000 0.00500 29.23741 0.00100 12.00000 50.00000 0.04000 1.00000 0.50000 0.50000 0.00001 0.10000 0.00000 0.00000 0.00000 
hydcha101 3 41.12025  1.30694 0.00456 4.51670  #manna # 0.00000 0.01000 0.00500 31.46311 0.00100 12.00000 50.00000 0.04000 1.00000 0.50000 0.50000 0.00001 0.10000 0.00000 0.00000 0.00000 
hydcha102 2 31.55897  1.09555 0.00818 21.33200 #manna # 0.00000 0.01000 0.00500 28.80651 0.00100 12.00000 50.00000 0.04000 1.00000 0.50000 0.50000 0.00001 0.10000 0.00000 0.00000 0.00000 
hydcha103 2 37.01870  1.21852 0.00387 8.31890  0.05000  0.00000 0.01000 0.00500 30.38017 0.00100 12.00000 50.00000 0.04000 1.00000 0.50000 0.50000 0.00001 0.10000 0.00000 0.00000 0.00000 
hydcha105 2 35.88471  1.19350 0.00368 2.41150  0.05000  0.00000 0.01000 0.00500 30.06674 0.00100 12.00000 50.00000 0.04000 1.00000 0.50000 0.50000 0.00001 0.10000 0.00000 0.00000 0.00000 
hydcha106 2 35.05296  1.17499 0.00922 7.43430  #manna # 0.00000 0.01000 0.00500 29.83262 0.00100 12.00000 50.00000 0.04000 1.00000 0.50000 0.50000 0.00001 0.10000 0.00000 0.00000 0.00000 
hydcha107 2 32.54202  1.11818 0.01902 24.06750 #manna # 0.00000 0.01000 0.00500 29.10257 0.00100 12.00000 50.00000 0.04000 1.00000 0.50000 0.50000 0.00001 0.10000 0.00000 0.00000 0.00000 
hydcha108 2 32.00524  1.10585 0.00271 4.70420  0.05000  0.00000 0.01000 0.00500 28.94166 0.00100 12.00000 50.00000 0.04000 1.00000 0.50000 0.50000 0.00001 0.10000 0.00000 0.00000 0.00000 
hydcha109 2 32.22898  1.11100 0.00540 9.96550  #manna # 0.00000 0.01000 0.00500 29.00895 0.00100 12.00000 50.00000 0.04000 1.00000 0.50000 0.50000 0.00001 0.10000 0.00000 0.00000 0.00000 
hydcha111 2 29.43310  1.04578 0.01078 10.60690 #manna # 0.00000 0.01000 0.00500 28.14460 0.00100 12.00000 50.00000 0.04000 1.00000 0.50000 0.50000 0.00001 0.10000 0.00000 0.00000 0.00000 
hydcha113 2 31.33575  1.09038 0.00465 6.79190  0.05000  0.00000 0.01000 0.00500 28.73844 0.00100 12.00000 50.00000 0.04000 1.00000 0.50000 0.50000 0.00001 0.10000 0.00000 0.00000 0.00000 
hydcha115 2 24.20315  0.91791 0.01068 6.98260  0.05000  0.00000 0.01000 0.00500 26.36779 0.00100 12.00000 50.00000 0.04000 1.00000 0.50000 0.50000 0.00001 0.10000 0.00000 0.00000 0.00000 
hydcha116 2 27.16612  0.99137 0.00757 9.01460  #manna # 0.00000 0.01000 0.00500 27.40263 0.00100 12.00000 50.00000 0.04000 1.00000 0.50000 0.50000 0.00001 0.10000 0.00000 0.00000 0.00000 
hydcha117 2 26.95493  0.98622 0.01089 13.80230 #manna # 0.00000 0.01000 0.00500 27.33144 0.00100 12.00000 50.00000 0.04000 1.00000 0.50000 0.50000 0.00001 0.10000 0.00000 0.00000 0.00000 
hydcha118 3 26.15597  0.96664 0.00518 7.98960  #manna # 0.00000 0.01000 0.00500 27.05869 0.00100 12.00000 50.00000 0.04000 1.00000 0.50000 0.50000 0.00001 0.10000 0.00000 0.00000 0.00000 
hydcha119 2 25.23068  0.94370 0.00623 4.93240  #manna # 0.00000 0.01000 0.00500 26.73577 0.00100 12.00000 50.00000 0.04000 1.00000 0.50000 0.50000 0.00001 0.10000 0.00000 0.00000 0.00000 
hydcha120 2 19.79051  0.80264 0.00925 15.30720 0.05000  0.00000 0.01000 0.00500 24.65673 0.00100 12.00000 50.00000 0.04000 1.00000 0.50000 0.50000 0.00001 0.10000 0.00000 0.00000 0.00000 
hydcha122 2 26.59037  0.97731 0.00425 8.81740  #manna # 0.00000 0.01000 0.00500 27.20766 0.00100 12.00000 50.00000 0.04000 1.00000 0.50000 0.50000 0.00001 0.10000 0.00000 0.00000 0.00000 
hydcha123 2 22.20990  0.86679 0.00978 13.53560 #manna # 0.00000 0.01000 0.00500 25.62312 0.00100 12.00000 50.00000 0.04000 1.00000 0.50000 0.50000 0.00001 0.10000 0.00000 0.00000 0.00000 
hydcha124 2 17.86229  0.74962 0.00858 2.32700  #manna # 0.00000 0.01000 0.00500 23.82843 0.00100 12.00000 50.00000 0.04000 1.00000 0.50000 0.50000 0.00001 0.10000 0.00000 0.00000 0.00000 
hydcha127 2 28.29484  1.01864 0.00418 6.98590  0.05000  0.00000 0.01000 0.00500 27.77701 0.00100 12.00000 50.00000 0.04000 1.00000 0.50000 0.50000 0.00001 0.10000 0.00000 0.00000 0.00000 
hydcha128 3 29.34072  1.04359 0.00586 6.07580  0.05000  0.00000 0.01000 0.00500 28.11513 0.00100 12.00000 50.00000 0.04000 1.00000 0.50000 0.50000 0.00001 0.10000 0.00000 0.00000 0.00000 
hydcha129 2 18.62814  0.77090 0.01035 5.91440  #manna # 0.00000 0.01000 0.00500 24.16423 0.00100 12.00000 50.00000 0.04000 1.00000 0.50000 0.50000 0.00001 0.10000 0.00000 0.00000 0.00000 
hydcha131 2 18.57020  0.76930 0.02322 17.09640 0.05000  0.00000 0.01000 0.00500 24.13915 0.00100 12.00000 50.00000 0.04000 1.00000 0.50000 0.50000 0.00001 0.10000 0.00000 0.00000 0.00000 
hydcha133 2 23.40225  0.89754 0.01245 14.20550 #manna # 0.00000 0.01000 0.00500 26.07368 0.00100 12.00000 50.00000 0.04000 1.00000 0.50000 0.50000 0.00001 0.10000 0.00000 0.00000 0.00000 
hydcha134 2 26.50155  0.97513 0.00735 14.10190 #manna # 0.00000 0.01000 0.00500 27.17734 0.00100 12.00000 50.00000 0.04000 1.00000 0.50000 0.50000 0.00001 0.10000 0.00000 0.00000 0.00000 
hydcha135 2 18.31513  0.76224 0.01438 7.74110  #manna # 0.00000 0.01000 0.00500 24.02812 0.00100 12.00000 50.00000 0.04000 1.00000 0.50000 0.50000 0.00001 0.10000 0.00000 0.00000 0.00000 
hydcha136 2 17.91810  0.75118 0.00734 6.45580  #manna # 0.00000 0.01000 0.00500 23.85322 0.00100 12.00000 50.00000 0.04000 1.00000 0.50000 0.50000 0.00001 0.10000 0.00000 0.00000 0.00000 
hydcha139 2 17.56199  0.74120 0.01271 20.77420 #manna # 0.00000 0.01000 0.00500 23.69414 0.00100 12.00000 50.00000 0.04000 1.00000 0.50000 0.50000 0.00001 0.10000 0.00000 0.00000 0.00000 
hydcha141 2 20.41768  0.81951 0.00579 4.13900  0.05000  0.00000 0.01000 0.00500 24.91449 0.00100 12.00000 50.00000 0.04000 1.00000 0.50000 0.50000 0.00001 0.10000 0.00000 0.00000 0.00000 
hydcha142 2 15.00123  0.66727 0.01398 11.96610 #manna # 0.00000 0.01000 0.00500 22.48151 0.00100 12.00000 50.00000 0.04000 1.00000 0.50000 0.50000 0.00001 0.10000 0.00000 0.00000 0.00000 
hydcha143 2 20.84856  0.83100 0.00766 8.26640  0.05000  0.00000 0.01000 0.00500 25.08852 0.00100 12.00000 50.00000 0.04000 1.00000 0.50000 0.50000 0.00001 0.10000 0.00000 0.00000 0.00000 
hydcha144 2 12.98546  0.60607 0.00787 4.36500  #manna # 0.00000 0.01000 0.00500 21.42573 0.00100 12.00000 50.00000 0.04000 1.00000 0.50000 0.50000 0.00001 0.10000 0.00000 0.00000 0.00000 
hydcha147 2 19.05595  0.78266 0.00567 4.88240  0.05000  0.00000 0.01000 0.00500 24.34782 0.00100 12.00000 50.00000 0.04000 1.00000 0.50000 0.50000 0.00001 0.10000 0.00000 0.00000 0.00000 
hydcha148 2 22.43165  0.87255 0.01040 24.28740 #manna # 0.00000 0.01000 0.00500 25.70811 0.00100 12.00000 50.00000 0.04000 1.00000 0.50000 0.50000 0.00001 0.10000 0.00000 0.00000 0.00000 
hydcha152 2 12.02963  0.57595 0.01088 5.04200  #manna # 0.00000 0.01000 0.00500 20.88657 0.00100 12.00000 50.00000 0.04000 1.00000 0.50000 0.50000 0.00001 0.10000 0.00000 0.00000 0.00000 
hydcha153 2 15.23915  0.67431 0.01343 8.49060  0.05000  0.00000 0.01000 0.00500 22.59974 0.00100 12.00000 50.00000 0.04000 1.00000 0.50000 0.50000 0.00001 0.10000 0.00000 0.00000 0.00000 
hydcha155 2 18.98903  0.78082 0.01396 13.67090 0.05000  0.00000 0.01000 0.00500 24.31928 0.00100 12.00000 50.00000 0.04000 1.00000 0.50000 0.50000 0.00001 0.10000 0.00000 0.00000 0.00000 
hydcha156 2 12.10458  0.57834 0.01764 4.65990  0.05000  0.00000 0.01000 0.00500 20.92986 0.00100 12.00000 50.00000 0.04000 1.00000 0.50000 0.50000 0.00001 0.10000 0.00000 0.00000 0.00000 
hydcha157 2 14.45296  0.65091 0.00774 5.27030  0.05000  0.00000 0.01000 0.00500 22.20421 0.00100 12.00000 50.00000 0.04000 1.00000 0.50000 0.50000 0.00001 0.10000 0.00000 0.00000 0.00000 
hydcha158 2 15.48217  0.68146 0.01160 9.74550  #manna # 0.00000 0.01000 0.00500 22.71923 0.00100 12.00000 50.00000 0.04000 1.00000 0.50000 0.50000 0.00001 0.10000 0.00000 0.00000 0.00000 
hydcha159 2 12.74651  0.59861 0.00789 6.06590  0.05000  0.00000 0.01000 0.00500 21.29349 0.00100 12.00000 50.00000 0.04000 1.00000 0.50000 0.50000 0.00001 0.10000 0.00000 0.00000 0.00000 
hydcha162 1 13.31428  0.61626 0.00965 8.76640  0.05000  0.00000 0.01000 0.00500 21.60507 0.00100 12.00000 50.00000 0.04000 1.00000 0.50000 0.50000 0.00001 0.10000 0.00000 0.00000 0.00000 
hydcha166 1 18.68322  0.77242 0.00625 15.58830 0.05000  0.00000 0.01000 0.00500 24.18802 0.00100 12.00000 50.00000 0.04000 1.00000 0.50000 0.50000 0.00001 0.10000 0.00000 0.00000 0.00000 
hydcha168 1 11.96608  0.57392 0.00536 4.81950  0.05000  0.00000 0.01000 0.00500 20.84973 0.00100 12.00000 50.00000 0.04000 1.00000 0.50000 0.50000 0.00001 0.10000 0.00000 0.00000 0.00000 
hydcha169 1 22.86249  0.88369 0.00719 22.93000 0.05000  0.00000 0.01000 0.00500 25.87166 0.00100 12.00000 50.00000 0.04000 1.00000 0.50000 0.50000 0.00001 0.10000 0.00000 0.00000 0.00000 
hydcha170 1 10.17962  0.51527 0.00590 4.44000  0.05000  0.00000 0.01000 0.00500 19.75576 0.00100 12.00000 50.00000 0.04000 1.00000 0.50000 0.50000 0.00001 0.10000 0.00000 0.00000 0.00000 
hydcha171 1 9.00108   0.47469 0.00824 4.80560  0.05000  0.00000 0.01000 0.00500 18.96188 0.00100 12.00000 50.00000 0.04000 1.00000 0.50000 0.50000 0.00001 0.10000 0.00000 0.00000 0.00000 
hydcha173 1 7.14457   0.40694 0.01128 1.84160  0.05000  0.00000 0.01000 0.00500 17.55666 0.00100 12.00000 50.00000 0.04000 1.00000 0.50000 0.50000 0.00001 0.10000 0.00000 0.00000 0.00000 
hydcha175 1 9.69096   0.49865 0.00304 3.06510  0.05000  0.00000 0.01000 0.00500 19.43444 0.00100 12.00000 50.00000 0.04000 1.00000 0.50000 0.50000 0.00001 0.10000 0.00000 0.00000 0.00000 
hydcha176 1 8.29119   0.44939 0.01176 2.87110  0.05000  0.00000 0.01000 0.00500 18.44968 0.00100 12.00000 50.00000 0.04000 1.00000 0.50000 0.50000 0.00001 0.10000 0.00000 0.00000 0.00000 
hydcha177 1 10.51459  0.52652 0.00924 4.32560  0.05000  0.00000 0.01000 0.00500 19.97012 0.00100 12.00000 50.00000 0.04000 1.00000 0.50000 0.50000 0.00001 0.10000 0.00000 0.00000 0.00000 
hydcha178 1 10.24011  0.51731 0.01190 6.51620  0.05000  0.00000 0.01000 0.00500 19.79481 0.00100 12.00000 50.00000 0.04000 1.00000 0.50000 0.50000 0.00001 0.10000 0.00000 0.00000 0.00000 
hydcha180 1 16.48967  0.71071 0.00435 10.73080 #manna # 0.00000 0.01000 0.00500 23.20173 0.00100 12.00000 50.00000 0.04000 1.00000 0.50000 0.50000 0.00001 0.10000 0.00000 0.00000 0.00000 
hydcha182 1 11.73495  0.56651 0.00948 5.65340  0.05000  0.00000 0.01000 0.00500 20.71462 0.00100 12.00000 50.00000 0.04000 1.00000 0.50000 0.50000 0.00001 0.10000 0.00000 0.00000 0.00000 
hydcha184 1 7.94754   0.43689 0.00764 2.24410  0.05000  0.00000 0.01000 0.00500 18.19117 0.00100 12.00000 50.00000 0.04000 1.00000 0.50000 0.50000 0.00001 0.10000 0.00000 0.00000 0.00000 
hydcha185 1 11.75935  0.56729 0.02772 8.92590  #manna # 0.00000 0.01000 0.00500 20.72896 0.00100 12.00000 50.00000 0.04000 1.00000 0.50000 0.50000 0.00001 0.10000 0.00000 0.00000 0.00000 
hydcha186 1 20.47135  0.82095 0.00595 32.69620 #manna # 0.00000 0.01000 0.00500 24.93629 0.00100 12.00000 50.00000 0.04000 1.00000 0.50000 0.50000 0.00001 0.10000 0.00000 0.00000 0.00000 
hydcha187 1 9.05106   0.47645 0.01890 5.14960  0.05000  0.00000 0.01000 0.00500 18.99691 0.00100 12.00000 50.00000 0.04000 1.00000 0.50000 0.50000 0.00001 0.10000 0.00000 0.00000 0.00000 
hydcha188 1 8.81246   0.46804 0.01908 4.38070  #manna # 0.00000 0.01000 0.00500 18.82849 0.00100 12.00000 50.00000 0.04000 1.00000 0.50000 0.50000 0.00001 0.10000 0.00000 0.00000 0.00000 
hydcha189 1 14.07562  0.63953 0.02335 9.83270  #manna # 0.00000 0.01000 0.00500 22.00927 0.00100 12.00000 50.00000 0.04000 1.00000 0.50000 0.50000 0.00001 0.10000 0.00000 0.00000 0.00000 
hydcha190 1 7.11982   0.40600 0.04514 0.03540  0.05000  0.00000 0.01000 0.00500 17.53636 0.00100 12.00000 50.00000 0.04000 1.00000 0.50000 0.50000 0.00001 0.10000 0.00000 0.00000 0.00000 
hydcha191 1 6.63983   0.38754 0.01761 0.88890  0.05000  0.00000 0.01000 0.00500 17.13308 0.00100 12.00000 50.00000 0.04000 1.00000 0.50000 0.50000 0.00001 0.10000 0.00000 0.00000 0.00000 
hydcha192 1 7.76347   0.43012 0.00538 2.11050  #manna # 0.00000 0.01000 0.00500 18.04964 0.00100 12.00000 50.00000 0.04000 1.00000 0.50000 0.50000 0.00001 0.10000 0.00000 0.00000 0.00000 
hydcha195 1 8.22835   0.44712 0.00938 1.87950  0.05000  0.00000 0.01000 0.00500 18.40295 0.00100 12.00000 50.00000 0.04000 1.00000 0.50000 0.50000 0.00001 0.10000 0.00000 0.00000 0.00000 
hydcha197 1 12.31124  0.58490 0.01575 8.76960  0.05000  0.00000 0.01000 0.00500 21.04830 0.00100 12.00000 50.00000 0.04000 1.00000 0.50000 0.50000 0.00001 0.10000 0.00000 0.00000 0.00000 
hydcha199 1 6.65354   0.38808 0.03072 0.51820  0.05000  0.00000 0.01000 0.00500 17.14487 0.00100 12.00000 50.00000 0.04000 1.00000 0.50000 0.50000 0.00001 0.10000 0.00000 0.00000 0.00000 
hydcha201 1 9.00426   0.47481 0.03664 1.42950  #manna # 0.00000 0.01000 0.00500 18.96411 0.00100 12.00000 50.00000 0.04000 1.00000 0.50000 0.50000 0.00001 0.10000 0.00000 0.00000 0.00000 
hydcha202 1 11.51154  0.55929 0.00647 3.15290  #manna # 0.00000 0.01000 0.00500 20.58232 0.00100 12.00000 50.00000 0.04000 1.00000 0.50000 0.50000 0.00001 0.10000 0.00000 0.00000 0.00000 
hydcha203 1 10.31569  0.51986 0.01373 7.54110  #manna # 0.00000 0.01000 0.00500 19.84339 0.00100 12.00000 50.00000 0.04000 1.00000 0.50000 0.50000 0.00001 0.10000 0.00000 0.00000 0.00000 
hydcha204 1 7.08522   0.40469 0.00936 2.52940  0.05000  0.00000 0.01000 0.00500 17.50791 0.00100 12.00000 50.00000 0.04000 1.00000 0.50000 0.50000 0.00001 0.10000 0.00000 0.00000 0.00000 
hydcha205 1 11.30501  0.55258 0.01066 3.79250  #manna # 0.00000 0.01000 0.00500 20.45848 0.00100 12.00000 50.00000 0.04000 1.00000 0.50000 0.50000 0.00001 0.10000 0.00000 0.00000 0.00000 
hydcha210 1 17.18516  0.73055 0.01398 17.12060 #manna # 0.00000 0.01000 0.00500 23.52345 0.00100 12.00000 50.00000 0.04000 1.00000 0.50000 0.50000 0.00001 0.10000 0.00000 0.00000 0.00000 
hydcha211 1 10.05866  0.51118 0.02071 5.53130  0.05000  0.00000 0.01000 0.00500 19.67720 0.00100 12.00000 50.00000 0.04000 1.00000 0.50000 0.50000 0.00001 0.10000 0.00000 0.00000 0.00000 
hydcha214 1 10.27405  0.51846 0.02099 2.47080  0.05000  0.00000 0.01000 0.00500 19.81665 0.00100 12.00000 50.00000 0.04000 1.00000 0.50000 0.50000 0.00001 0.10000 0.00000 0.00000 0.00000 
hydcha218 1 8.62478   0.46137 0.01429 3.24940  0.05000  0.00000 0.01000 0.00500 18.69387 0.00100 12.00000 50.00000 0.04000 1.00000 0.50000 0.50000 0.00001 0.10000 0.00000 0.00000 0.00000 
hydcha219 1 11.35410  0.55418 0.00839 4.73490  #manna # 0.00000 0.01000 0.00500 20.48805 0.00100 12.00000 50.00000 0.04000 1.00000 0.50000 0.50000 0.00001 0.10000 0.00000 0.00000 0.00000 
hydcha221 1 20.00362  0.80839 0.01264 22.91080 #manna # 0.00000 0.01000 0.00500 24.74492 0.00100 12.00000 50.00000 0.04000 1.00000 0.50000 0.50000 0.00001 0.10000 0.00000 0.00000 0.00000 
hydcha227 1 9.55552   0.49399 0.03545 5.82980  0.05000  0.00000 0.01000 0.00500 19.34348 0.00100 12.00000 50.00000 0.04000 1.00000 0.50000 0.50000 0.00001 0.10000 0.00000 0.00000 0.00000 
hydcha229 1 12.28837  0.58418 0.00798 10.91150 #manna # 0.00000 0.01000 0.00500 21.03526 0.00100 12.00000 50.00000 0.04000 1.00000 0.50000 0.50000 0.00001 0.10000 0.00000 0.00000 0.00000 
hydcha232 1 6.56672   0.38469 0.01110 0.22680  #manna # 0.00000 0.01000 0.00500 17.06996 0.00100 12.00000 50.00000 0.04000 1.00000 0.50000 0.50000 0.00001 0.10000 0.00000 0.00000 0.00000 
hydcha233 1 21.39468  0.84545 0.01480 22.29870 0.05000  0.00000 0.01000 0.00500 25.30570 0.00100 12.00000 50.00000 0.04000 1.00000 0.50000 0.50000 0.00001 0.10000 0.00000 0.00000 0.00000 
hydcha235 1 8.90417   0.47128 0.00693 2.27800  #manna # 0.00000 0.01000 0.00500 18.89358 0.00100 12.00000 50.00000 0.04000 1.00000 0.50000 0.50000 0.00001 0.10000 0.00000 0.00000 0.00000 
hydcha238 1 9.02986   0.47570 0.01909 0.79060  0.05000  0.00000 0.01000 0.00500 18.98206 0.00100 12.00000 50.00000 0.04000 1.00000 0.50000 0.50000 0.00001 0.10000 0.00000 0.00000 0.00000 
hydcha239 1 11.92638  0.57265 0.01384 6.73760  #manna # 0.00000 0.01000 0.00500 20.82664 0.00100 12.00000 50.00000 0.04000 1.00000 0.50000 0.50000 0.00001 0.10000 0.00000 0.00000 0.00000 
hydcha240 1 9.97432   0.50832 0.03589 4.99170  #manna # 0.00000 0.01000 0.00500 19.62204 0.00100 12.00000 50.00000 0.04000 1.00000 0.50000 0.50000 0.00001 0.10000 0.00000 0.00000 0.00000 
hydcha243 1 14.43711  0.65043 0.01323 15.81330 #manna # 0.00000 0.01000 0.00500 22.19609 0.00100 12.00000 50.00000 0.04000 1.00000 0.50000 0.50000 0.00001 0.10000 0.00000 0.00000 0.00000 
hydcha244 1 10.65300  0.53113 0.01934 1.83980  #manna # 0.00000 0.01000 0.00500 20.05736 0.00100 12.00000 50.00000 0.04000 1.00000 0.50000 0.50000 0.00001 0.10000 0.00000 0.00000 0.00000 
hydcha245 1 7.44688   0.41834 0.00822 4.66420  #manna # 0.00000 0.01000 0.00500 17.80087 0.00100 12.00000 50.00000 0.04000 1.00000 0.50000 0.50000 0.00001 0.10000 0.00000 0.00000 0.00000 
hydcha246 1 12.54248  0.59221 0.01452 7.84210  #manna # 0.00000 0.01000 0.00500 21.17927 0.00100 12.00000 50.00000 0.04000 1.00000 0.50000 0.50000 0.00001 0.10000 0.00000 0.00000 0.00000 
hydcha247 1 9.81676   0.50295 0.01093 6.49020  #manna # 0.00000 0.01000 0.00500 19.51818 0.00100 12.00000 50.00000 0.04000 1.00000 0.50000 0.50000 0.00001 0.10000 0.00000 0.00000 0.00000 
hydcha248 1 6.73382   0.39119 0.01867 1.01990  0.05000  0.00000 0.01000 0.00500 17.21355 0.00100 12.00000 50.00000 0.04000 1.00000 0.50000 0.50000 0.00001 0.10000 0.00000 0.00000 0.00000 
hydcha250 1 14.10471  0.64041 0.02389 14.16330 #manna # 0.00000 0.01000 0.00500 22.02442 0.00100 12.00000 50.00000 0.04000 1.00000 0.50000 0.50000 0.00001 0.10000 0.00000 0.00000 0.00000 