ptf #
hydrology.hyd: written by SWAT+ editor v2.1.4 on 2022-11-22 14:57 for SWAT+ rev.60.5.4, edited perco, cn3_swf, and latq_co according to Lebon et al. (2022) on 2023-03-29 11:56:31
name lat_ttime lat_sed can_max esco epco orgn_enrich orgp_enrich cn3_swf bio_mix perco lat_orgn lat_orgp harg_pet latq_co
hyd0001 #lat_ttime0a # 0 1 #esco0.95a # 1.00000 0 0 #cn3_swf0.3a # 0.2 #perco0.5a #  0 0 0 #latq_co0.2a #
hyd0002 #lat_ttime0a # 0 1 #esco0.95a # 1.00000 0 0 0.0000         0.2 #perco0.05a # 0 0 0 0.9000        
hyd0003 #lat_ttime0a # 0 1 #esco0.95a # 1.00000 0 0 0.0000         0.2 #perco0.05a # 0 0 0 0.9000        
hyd0004 #lat_ttime0a # 0 1 #esco0.95a # 1.00000 0 0 0.0000         0.2 #perco0.05a # 0 0 0 0.9000        
hyd0005 #lat_ttime0a # 0 1 #esco0.95a # 1.00000 0 0 #cn3_swf0.3a # 0.2 #perco0.5a #  0 0 0 #latq_co0.2a #
hyd0006 #lat_ttime0a # 0 1 #esco0.95a # 1.00000 0 0 #cn3_swf0.3a # 0.2 #perco0.5a #  0 0 0 #latq_co0.2a #
hyd0007 #lat_ttime0a # 0 1 #esco0.95a # 1.00000 0 0 0.0000         0.2 #perco0.05a # 0 0 0 0.9000        
hyd0008 #lat_ttime0a # 0 1 #esco0.95a # 1.00000 0 0 0.0000         0.2 #perco0.05a # 0 0 0 0.9000        
hyd0009 #lat_ttime0a # 0 1 #esco0.95a # 1.00000 0 0 #cn3_swf0.3a # 0.2 #perco0.5a #  0 0 0 #latq_co0.2a #
hyd0010 #lat_ttime0a # 0 1 #esco0.95a # 1.00000 0 0 0.0000         0.2 #perco0.05a # 0 0 0 0.9000        
hyd0011 #lat_ttime0a # 0 1 #esco0.95a # 1.00000 0 0 0.0000         0.2 #perco0.05a # 0 0 0 0.9000        
hyd0012 #lat_ttime0a # 0 1 #esco0.95a # 1.00000 0 0 #cn3_swf0.3a # 0.2 #perco0.5a #  0 0 0 #latq_co0.2a #
hyd0013 #lat_ttime0a # 0 1 #esco0.95a # 1.00000 0 0 0.0000         0.2 #perco0.05a # 0 0 0 0.9000        
hyd0014 #lat_ttime0a # 0 1 #esco0.95a # 1.00000 0 0 0.0000         0.2 #perco0.05a # 0 0 0 0.9000        
hyd0015 #lat_ttime0a # 0 1 #esco0.95a # 1.00000 0 0 #cn3_swf0.3a # 0.2 #perco0.5a #  0 0 0 #latq_co0.2a #
hyd0016 #lat_ttime0a # 0 1 #esco0.95a # 1.00000 0 0 0.0000         0.2 #perco0.05a # 0 0 0 0.9000        
hyd0017 #lat_ttime0a # 0 1 #esco0.95a # 1.00000 0 0 0.0000         0.2 #perco0.05a # 0 0 0 0.9000        
hyd0018 #lat_ttime0a # 0 1 #esco0.95a # 1.00000 0 0 #cn3_swf0.3a # 0.2 #perco0.5a #  0 0 0 #latq_co0.2a #
hyd0019 #lat_ttime0a # 0 1 #esco0.95a # 1.00000 0 0 0.0000         0.2 #perco0.05a # 0 0 0 0.9000        
hyd0020 #lat_ttime0a # 0 1 #esco0.95a # 1.00000 0 0 #cn3_swf0.3a # 0.2 #perco0.5a #  0 0 0 #latq_co0.2a #
hyd0021 #lat_ttime0a # 0 1 #esco0.95a # 1.00000 0 0 0.0000         0.2 #perco0.05a # 0 0 0 0.9000        
hyd0022 #lat_ttime0a # 0 1 #esco0.95a # 1.00000 0 0 0.0000         0.2 #perco0.05a # 0 0 0 0.9000        
hyd0023 #lat_ttime0a # 0 1 #esco0.95a # 1.00000 0 0 0.0000         0.2 #perco0.05a # 0 0 0 0.9000        
hyd0024 #lat_ttime0a # 0 1 #esco0.95a # 1.00000 0 0 #cn3_swf0.3a # 0.2 #perco0.5a #  0 0 0 #latq_co0.2a #
hyd0025 #lat_ttime0a # 0 1 #esco0.95a # 1.00000 0 0 0.0000         0.2 #perco0.05a # 0 0 0 0.9000        
hyd0026 #lat_ttime0a # 0 1 #esco0.95a # 1.00000 0 0 0.0000         0.2 #perco0.05a # 0 0 0 0.9000        
hyd0027 #lat_ttime0a # 0 1 #esco0.95a # 1.00000 0 0 #cn3_swf0.3a # 0.2 #perco0.5a #  0 0 0 #latq_co0.2a #
hyd0028 #lat_ttime0a # 0 1 #esco0.95a # 1.00000 0 0 0.0000         0.2 #perco0.05a # 0 0 0 0.9000        
hyd0029 #lat_ttime0a # 0 1 #esco0.95a # 1.00000 0 0 0.0000         0.2 #perco0.05a # 0 0 0 0.9000        
hyd0030 #lat_ttime0a # 0 1 #esco0.95a # 1.00000 0 0 #cn3_swf0.3a # 0.2 #perco0.5a #  0 0 0 #latq_co0.2a #
hyd0031 #lat_ttime0a # 0 1 #esco0.95a # 1.00000 0 0 0.0000         0.2 #perco0.05a # 0 0 0 0.9000        
hyd0032 #lat_ttime0a # 0 1 #esco0.95a # 1.00000 0 0 #cn3_swf0.3a # 0.2 #perco0.5a #  0 0 0 #latq_co0.2a #
hyd0033 #lat_ttime0a # 0 1 #esco0.95a # 1.00000 0 0 0.0000         0.2 #perco0.05a # 0 0 0 0.9000        
hyd0034 #lat_ttime0a # 0 1 #esco0.95a # 1.00000 0 0 #cn3_swf0.3a # 0.2 #perco0.5a #  0 0 0 #latq_co0.2a #
hyd0035 #lat_ttime0a # 0 1 #esco0.95a # 1.00000 0 0 0.0000         0.2 #perco0.05a # 0 0 0 0.9000        
hyd0036 #lat_ttime0a # 0 1 #esco0.95a # 1.00000 0 0 0.0000         0.2 #perco0.05a # 0 0 0 0.9000        
hyd0037 #lat_ttime0a # 0 1 #esco0.95a # 1.00000 0 0 #cn3_swf0.3a # 0.2 #perco0.5a #  0 0 0 #latq_co0.2a #
hyd0038 #lat_ttime0a # 0 1 #esco0.95a # 1.00000 0 0 0.0000         0.2 #perco0.05a # 0 0 0 0.9000        
hyd0039 #lat_ttime0a # 0 1 #esco0.95a # 1.00000 0 0 0.0000         0.2 #perco0.05a # 0 0 0 0.9000        
hyd0040 #lat_ttime0a # 0 1 #esco0.95a # 1.00000 0 0 0.0000         0.2 #perco0.05a # 0 0 0 0.9000        
hyd0041 #lat_ttime0a # 0 1 #esco0.95a # 1.00000 0 0 0.0000         0.2 #perco0.05a # 0 0 0 0.9000        
hyd0042 #lat_ttime0a # 0 1 #esco0.95a # 1.00000 0 0 0.0000         0.2 #perco0.05a # 0 0 0 0.9000        
hyd0043 #lat_ttime0a # 0 1 #esco0.95a # 1.00000 0 0 0.0000         0.2 #perco0.05a # 0 0 0 0.9000        
hyd0044 #lat_ttime0a # 0 1 #esco0.95a # 1.00000 0 0 0.0000         0.2 #perco0.05a # 0 0 0 0.9000        
hyd0045 #lat_ttime0a # 0 1 #esco0.95a # 1.00000 0 0 0.0000         0.2 #perco0.05a # 0 0 0 0.9000        
hyd0046 #lat_ttime0a # 0 1 #esco0.95a # 1.00000 0 0 0.0000         0.2 #perco0.05a # 0 0 0 0.9000        
hyd0047 #lat_ttime0a # 0 1 #esco0.95a # 1.00000 0 0 0.0000         0.2 #perco0.05a # 0 0 0 0.9000        
hyd0048 #lat_ttime0a # 0 1 #esco0.95a # 1.00000 0 0 #cn3_swf0.3a # 0.2 #perco0.5a #  0 0 0 #latq_co0.2a #
hyd0049 #lat_ttime0a # 0 1 #esco0.95a # 1.00000 0 0 0.0000         0.2 #perco0.05a # 0 0 0 0.9000        
hyd0050 #lat_ttime0a # 0 1 #esco0.95a # 1.00000 0 0 #cn3_swf0.3a # 0.2 #perco0.5a #  0 0 0 #latq_co0.2a #
hyd0051 #lat_ttime0a # 0 1 #esco0.95a # 1.00000 0 0 0.0000         0.2 #perco0.05a # 0 0 0 0.9000        
hyd0052 #lat_ttime0a # 0 1 #esco0.95a # 1.00000 0 0 0.0000         0.2 #perco0.5a #  0 0 0 0.9000        
hyd0053 #lat_ttime0a # 0 1 #esco0.95a # 1.00000 0 0 #cn3_swf0.3a # 0.2 #perco0.5a #  0 0 0 #latq_co0.2a #
hyd0054 #lat_ttime0a # 0 1 #esco0.95a # 1.00000 0 0 0.0000         0.2 #perco0.05a # 0 0 0 0.9000        
hyd0055 #lat_ttime0a # 0 1 #esco0.95a # 1.00000 0 0 #cn3_swf0.3a # 0.2 #perco0.5a #  0 0 0 #latq_co0.2a #
hyd0056 #lat_ttime0a # 0 1 #esco0.95a # 1.00000 0 0 #cn3_swf0.3a # 0.2 #perco0.5a #  0 0 0 #latq_co0.2a #
hyd0057 #lat_ttime0a # 0 1 #esco0.95a # 1.00000 0 0 0.0000         0.2 #perco0.05a # 0 0 0 0.9000        
hyd0058 #lat_ttime0a # 0 1 #esco0.95a # 1.00000 0 0 0.0000         0.2 #perco0.5a #  0 0 0 0.9000        
hyd0059 #lat_ttime0a # 0 1 #esco0.95a # 1.00000 0 0 #cn3_swf0.3a # 0.2 #perco0.5a #  0 0 0 #latq_co0.2a #
hyd0060 #lat_ttime0a # 0 1 #esco0.95a # 1.00000 0 0 #cn3_swf0.3a # 0.2 #perco0.5a #  0 0 0 #latq_co0.2a #
hyd0061 #lat_ttime0a # 0 1 #esco0.95a # 1.00000 0 0 0.0000         0.2 #perco0.05a # 0 0 0 0.9000        
hyd0062 #lat_ttime0a # 0 1 #esco0.95a # 1.00000 0 0 0.0000         0.2 #perco0.05a # 0 0 0 0.9000        
hyd0063 #lat_ttime0a # 0 1 #esco0.95a # 1.00000 0 0 #cn3_swf0.3a # 0.2 #perco0.5a #  0 0 0 #latq_co0.2a #
hyd0064 #lat_ttime0a # 0 1 #esco0.95a # 1.00000 0 0 0.0000         0.2 #perco0.05a # 0 0 0 0.9000        
hyd0065 #lat_ttime0a # 0 1 #esco0.95a # 1.00000 0 0 0.0000         0.2 #perco0.05a # 0 0 0 0.9000        
hyd0066 #lat_ttime0a # 0 1 #esco0.95a # 1.00000 0 0 #cn3_swf0.3a # 0.2 #perco0.5a #  0 0 0 #latq_co0.2a #
hyd0067 #lat_ttime0a # 0 1 #esco0.95a # 1.00000 0 0 0.0000         0.2 #perco0.05a # 0 0 0 0.9000        
hyd0068 #lat_ttime0a # 0 1 #esco0.95a # 1.00000 0 0 0.0000         0.2 #perco0.05a # 0 0 0 0.9000        
hyd0069 #lat_ttime0a # 0 1 #esco0.95a # 1.00000 0 0 #cn3_swf0.3a # 0.2 #perco0.5a #  0 0 0 #latq_co0.2a #
hyd0070 #lat_ttime0a # 0 1 #esco0.95a # 1.00000 0 0 0.0000         0.2 #perco0.05a # 0 0 0 0.9000        
hyd0071 #lat_ttime0a # 0 1 #esco0.95a # 1.00000 0 0 0.0000         0.2 #perco0.05a # 0 0 0 0.9000        
hyd0072 #lat_ttime0a # 0 1 #esco0.95a # 1.00000 0 0 0.0000         0.2 #perco0.05a # 0 0 0 0.9000        
hyd0073 #lat_ttime0a # 0 1 #esco0.95a # 1.00000 0 0 #cn3_swf0.3a # 0.2 #perco0.5a #  0 0 0 #latq_co0.2a #
hyd0074 #lat_ttime0a # 0 1 #esco0.95a # 1.00000 0 0 0.0000         0.2 #perco0.05a # 0 0 0 0.9000        
hyd0075 #lat_ttime0a # 0 1 #esco0.95a # 1.00000 0 0 0.0000         0.2 #perco0.05a # 0 0 0 0.9000        
hyd0076 #lat_ttime0a # 0 1 #esco0.95a # 1.00000 0 0 #cn3_swf0.3a # 0.2 #perco0.5a #  0 0 0 #latq_co0.2a #
hyd0077 #lat_ttime0a # 0 1 #esco0.95a # 1.00000 0 0 #cn3_swf0.3a # 0.2 #perco0.5a #  0 0 0 #latq_co0.2a #
hyd0078 #lat_ttime0a # 0 1 #esco0.95a # 1.00000 0 0 0.0000         0.2 #perco0.05a # 0 0 0 0.9000        
hyd0079 #lat_ttime0a # 0 1 #esco0.95a # 1.00000 0 0 0.0000         0.2 #perco0.05a # 0 0 0 0.9000        
hyd0080 #lat_ttime0a # 0 1 #esco0.95a # 1.00000 0 0 0.0000         0.2 #perco0.05a # 0 0 0 0.9000        
hyd0081 #lat_ttime0a # 0 1 #esco0.95a # 1.00000 0 0 #cn3_swf0.3a # 0.2 #perco0.5a #  0 0 0 #latq_co0.2a #
hyd0082 #lat_ttime0a # 0 1 #esco0.95a # 1.00000 0 0 0.0000         0.2 #perco0.05a # 0 0 0 0.9000        
hyd0083 #lat_ttime0a # 0 1 #esco0.95a # 1.00000 0 0 0.0000         0.2 #perco0.05a # 0 0 0 0.9000        
hyd0084 #lat_ttime0a # 0 1 #esco0.95a # 1.00000 0 0 #cn3_swf0.3a # 0.2 #perco0.5a #  0 0 0 #latq_co0.2a #
hyd0085 #lat_ttime0a # 0 1 #esco0.95a # 1.00000 0 0 0.0000         0.2 #perco0.05a # 0 0 0 0.9000        
hyd0086 #lat_ttime0a # 0 1 #esco0.95a # 1.00000 0 0 0.0000         0.2 #perco0.05a # 0 0 0 0.9000        
hyd0087 #lat_ttime0a # 0 1 #esco0.95a # 1.00000 0 0 0.0000         0.2 #perco0.05a # 0 0 0 0.9000        
hyd0088 #lat_ttime0a # 0 1 #esco0.95a # 1.00000 0 0 0.0000         0.2 #perco0.05a # 0 0 0 0.9000        
hyd0089 #lat_ttime0a # 0 1 #esco0.95a # 1.00000 0 0 0.0000         0.2 #perco0.05a # 0 0 0 0.9000        
hyd0090 #lat_ttime0a # 0 1 #esco0.95a # 1.00000 0 0 0.0000         0.2 #perco0.05a # 0 0 0 0.9000        
hyd0091 #lat_ttime0a # 0 1 #esco0.95a # 1.00000 0 0 0.0000         0.2 #perco0.05a # 0 0 0 0.9000        
hyd0092 #lat_ttime0a # 0 1 #esco0.95a # 1.00000 0 0 #cn3_swf0.3a # 0.2 #perco0.5a #  0 0 0 #latq_co0.2a #
hyd0093 #lat_ttime0a # 0 1 #esco0.95a # 1.00000 0 0 0.0000         0.2 #perco0.05a # 0 0 0 0.9000        
hyd0094 #lat_ttime0a # 0 1 #esco0.95a # 1.00000 0 0 #cn3_swf0.3a # 0.2 #perco0.5a #  0 0 0 #latq_co0.2a #
hyd0095 #lat_ttime0a # 0 1 #esco0.95a # 1.00000 0 0 #cn3_swf0.3a # 0.2 #perco0.5a #  0 0 0 #latq_co0.2a #
hyd0096 #lat_ttime0a # 0 1 #esco0.95a # 1.00000 0 0 0.0000         0.2 #perco0.05a # 0 0 0 0.9000        
hyd0097 #lat_ttime0a # 0 1 #esco0.95a # 1.00000 0 0 0.0000         0.2 #perco0.05a # 0 0 0 0.9000        
hyd0098 #lat_ttime0a # 0 1 #esco0.95a # 1.00000 0 0 #cn3_swf0.3a # 0.2 #perco0.5a #  0 0 0 #latq_co0.2a #
hyd0099 #lat_ttime0a # 0 1 #esco0.95a # 1.00000 0 0 0.0000         0.2 #perco0.05a # 0 0 0 0.9000        
hyd0100 #lat_ttime0a # 0 1 #esco0.95a # 1.00000 0 0 0.0000         0.2 #perco0.05a # 0 0 0 0.9000        
hyd0101 #lat_ttime0a # 0 1 #esco0.95a # 1.00000 0 0 #cn3_swf0.3a # 0.2 #perco0.5a #  0 0 0 #latq_co0.2a #
hyd0102 #lat_ttime0a # 0 1 #esco0.95a # 1.00000 0 0 #cn3_swf0.3a # 0.2 #perco0.5a #  0 0 0 #latq_co0.2a #
hyd0103 #lat_ttime0a # 0 1 #esco0.95a # 1.00000 0 0 0.0000         0.2 #perco0.05a # 0 0 0 0.9000        
hyd0104 #lat_ttime0a # 0 1 #esco0.95a # 1.00000 0 0 0.0000         0.2 #perco0.05a # 0 0 0 0.9000        
hyd0105 #lat_ttime0a # 0 1 #esco0.95a # 1.00000 0 0 0.0000         0.2 #perco0.05a # 0 0 0 0.9000        
hyd0106 #lat_ttime0a # 0 1 #esco0.95a # 1.00000 0 0 0.0000         0.2 #perco0.05a # 0 0 0 0.9000        
hyd0107 #lat_ttime0a # 0 1 #esco0.95a # 1.00000 0 0 0.0000         0.2 #perco0.05a # 0 0 0 0.9000        
hyd0108 #lat_ttime0a # 0 1 #esco0.95a # 1.00000 0 0 #cn3_swf0.3a # 0.2 #perco0.5a #  0 0 0 #latq_co0.2a #
hyd0109 #lat_ttime0a # 0 1 #esco0.95a # 1.00000 0 0 0.0000         0.2 #perco0.05a # 0 0 0 0.9000        
hyd0110 #lat_ttime0a # 0 1 #esco0.95a # 1.00000 0 0 0.0000         0.2 #perco0.05a # 0 0 0 0.9000        
hyd0111 #lat_ttime0a # 0 1 #esco0.95a # 1.00000 0 0 #cn3_swf0.3a # 0.2 #perco0.5a #  0 0 0 #latq_co0.2a #
hyd0112 #lat_ttime0a # 0 1 #esco0.95a # 1.00000 0 0 0.0000         0.2 #perco0.05a # 0 0 0 0.9000        
hyd0113 #lat_ttime0a # 0 1 #esco0.95a # 1.00000 0 0 #cn3_swf0.3a # 0.2 #perco0.5a #  0 0 0 #latq_co0.2a #
hyd0114 #lat_ttime0a # 0 1 #esco0.95a # 1.00000 0 0 0.0000         0.2 #perco0.05a # 0 0 0 0.9000        
hyd0115 #lat_ttime0a # 0 1 #esco0.95a # 1.00000 0 0 0.0000         0.2 #perco0.05a # 0 0 0 0.9000        
hyd0116 #lat_ttime0a # 0 1 #esco0.95a # 1.00000 0 0 0.0000         0.2 #perco0.05a # 0 0 0 0.9000        
hyd0117 #lat_ttime0a # 0 1 #esco0.95a # 1.00000 0 0 #cn3_swf0.3a # 0.2 #perco0.5a #  0 0 0 #latq_co0.2a #
hyd0118 #lat_ttime0a # 0 1 #esco0.95a # 1.00000 0 0 0.0000         0.2 #perco0.05a # 0 0 0 0.9000        
hyd0119 #lat_ttime0a # 0 1 #esco0.95a # 1.00000 0 0 0.0000         0.2 #perco0.05a # 0 0 0 0.9000        
hyd0120 #lat_ttime0a # 0 1 #esco0.95a # 1.00000 0 0 #cn3_swf0.3a # 0.2 #perco0.5a #  0 0 0 #latq_co0.2a #
hyd0121 #lat_ttime0a # 0 1 #esco0.95a # 1.00000 0 0 #cn3_swf0.3a # 0.2 #perco0.5a #  0 0 0 #latq_co0.2a #
hyd0122 #lat_ttime0a # 0 1 #esco0.95a # 1.00000 0 0 0.0000         0.2 #perco0.05a # 0 0 0 0.9000        
hyd0123 #lat_ttime0a # 0 1 #esco0.95a # 1.00000 0 0 0.0000         0.2 #perco0.05a # 0 0 0 0.9000        
hyd0124 #lat_ttime0a # 0 1 #esco0.95a # 1.00000 0 0 0.0000         0.2 #perco0.05a # 0 0 0 0.9000        
hyd0125 #lat_ttime0a # 0 1 #esco0.95a # 1.00000 0 0 0.0000         0.2 #perco0.05a # 0 0 0 0.9000        
hyd0126 #lat_ttime0a # 0 1 #esco0.95a # 1.00000 0 0 #cn3_swf0.3a # 0.2 #perco0.5a #  0 0 0 #latq_co0.2a #
hyd0127 #lat_ttime0a # 0 1 #esco0.95a # 1.00000 0 0 #cn3_swf0.3a # 0.2 #perco0.5a #  0 0 0 #latq_co0.2a #
hyd0128 #lat_ttime0a # 0 1 #esco0.95a # 1.00000 0 0 0.0000         0.2 #perco0.05a # 0 0 0 0.9000        
hyd0129 #lat_ttime0a # 0 1 #esco0.95a # 1.00000 0 0 0.0000         0.2 #perco0.05a # 0 0 0 0.9000        
hyd0130 #lat_ttime0a # 0 1 #esco0.95a # 1.00000 0 0 0.0000         0.2 #perco0.05a # 0 0 0 0.9000        
hyd0131 #lat_ttime0a # 0 1 #esco0.95a # 1.00000 0 0 0.0000         0.2 #perco0.05a # 0 0 0 0.9000        
hyd0132 #lat_ttime0a # 0 1 #esco0.95a # 1.00000 0 0 #cn3_swf0.3a # 0.2 #perco0.5a #  0 0 0 #latq_co0.2a #
hyd0133 #lat_ttime0a # 0 1 #esco0.95a # 1.00000 0 0 #cn3_swf0.3a # 0.2 #perco0.5a #  0 0 0 #latq_co0.2a #
hyd0134 #lat_ttime0a # 0 1 #esco0.95a # 1.00000 0 0 0.0000         0.2 #perco0.05a # 0 0 0 0.9000        
hyd0135 #lat_ttime0a # 0 1 #esco0.95a # 1.00000 0 0 #cn3_swf0.3a # 0.2 #perco0.5a #  0 0 0 #latq_co0.2a #
hyd0136 #lat_ttime0a # 0 1 #esco0.95a # 1.00000 0 0 #cn3_swf0.3a # 0.2 #perco0.5a #  0 0 0 #latq_co0.2a #
hyd0137 #lat_ttime0a # 0 1 #esco0.95a # 1.00000 0 0 0.0000         0.2 #perco0.05a # 0 0 0 0.9000        
hyd0138 #lat_ttime0a # 0 1 #esco0.95a # 1.00000 0 0 0.0000         0.2 #perco0.05a # 0 0 0 0.9000        
hyd0139 #lat_ttime0a # 0 1 #esco0.95a # 1.00000 0 0 #cn3_swf0.3a # 0.2 #perco0.5a #  0 0 0 #latq_co0.2a #
hyd0140 #lat_ttime0a # 0 1 #esco0.95a # 1.00000 0 0 0.0000         0.2 #perco0.05a # 0 0 0 0.9000        
hyd0141 #lat_ttime0a # 0 1 #esco0.95a # 1.00000 0 0 0.0000         0.2 #perco0.05a # 0 0 0 0.9000        
hyd0142 #lat_ttime0a # 0 1 #esco0.95a # 1.00000 0 0 #cn3_swf0.3a # 0.2 #perco0.5a #  0 0 0 #latq_co0.2a #
hyd0143 #lat_ttime0a # 0 1 #esco0.95a # 1.00000 0 0 0.0000         0.2 #perco0.05a # 0 0 0 0.9000        
hyd0144 #lat_ttime0a # 0 1 #esco0.95a # 1.00000 0 0 0.0000         0.2 #perco0.05a # 0 0 0 0.9000        
hyd0145 #lat_ttime0a # 0 1 #esco0.95a # 1.00000 0 0 #cn3_swf0.3a # 0.2 #perco0.5a #  0 0 0 #latq_co0.2a #
hyd0146 #lat_ttime0a # 0 1 #esco0.95a # 1.00000 0 0 0.0000         0.2 #perco0.05a # 0 0 0 0.9000        
hyd0147 #lat_ttime0a # 0 1 #esco0.95a # 1.00000 0 0 0.0000         0.2 #perco0.05a # 0 0 0 0.9000        
hyd0148 #lat_ttime0a # 0 1 #esco0.95a # 1.00000 0 0 #cn3_swf0.3a # 0.2 #perco0.5a #  0 0 0 #latq_co0.2a #
hyd0149 #lat_ttime0a # 0 1 #esco0.95a # 1.00000 0 0 0.0000         0.2 #perco0.05a # 0 0 0 0.9000        
hyd0150 #lat_ttime0a # 0 1 #esco0.95a # 1.00000 0 0 #cn3_swf0.3a # 0.2 #perco0.5a #  0 0 0 #latq_co0.2a #
hyd0151 #lat_ttime0a # 0 1 #esco0.95a # 1.00000 0 0 0.0000         0.2 #perco0.05a # 0 0 0 0.9000        
hyd0152 #lat_ttime0a # 0 1 #esco0.95a # 1.00000 0 0 0.0000         0.2 #perco0.05a # 0 0 0 0.9000        
hyd0153 #lat_ttime0a # 0 1 #esco0.95a # 1.00000 0 0 0.0000         0.2 #perco0.05a # 0 0 0 0.9000        
hyd0154 #lat_ttime0a # 0 1 #esco0.95a # 1.00000 0 0 #cn3_swf0.3a # 0.2 #perco0.5a #  0 0 0 #latq_co0.2a #
hyd0155 #lat_ttime0a # 0 1 #esco0.95a # 1.00000 0 0 0.0000         0.2 #perco0.05a # 0 0 0 0.9000        
hyd0156 #lat_ttime0a # 0 1 #esco0.95a # 1.00000 0 0 0.0000         0.2 #perco0.05a # 0 0 0 0.9000        
hyd0157 #lat_ttime0a # 0 1 #esco0.95a # 1.00000 0 0 #cn3_swf0.3a # 0.2 #perco0.5a #  0 0 0 #latq_co0.2a #
hyd0158 #lat_ttime0a # 0 1 #esco0.95a # 1.00000 0 0 0.0000         0.2 #perco0.05a # 0 0 0 0.9000        
hyd0159 #lat_ttime0a # 0 1 #esco0.95a # 1.00000 0 0 0.0000         0.2 #perco0.05a # 0 0 0 0.9000        
hyd0160 #lat_ttime0a # 0 1 #esco0.95a # 1.00000 0 0 #cn3_swf0.3a # 0.2 #perco0.5a #  0 0 0 #latq_co0.2a #
hyd0161 #lat_ttime0a # 0 1 #esco0.95a # 1.00000 0 0 0.0000         0.2 #perco0.05a # 0 0 0 0.9000        
hyd0162 #lat_ttime0a # 0 1 #esco0.95a # 1.00000 0 0 #cn3_swf0.3a # 0.2 #perco0.5a #  0 0 0 #latq_co0.2a #
hyd0163 #lat_ttime0a # 0 1 #esco0.95a # 1.00000 0 0 #cn3_swf0.3a # 0.2 #perco0.5a #  0 0 0 #latq_co0.2a #
hyd0164 #lat_ttime0a # 0 1 #esco0.95a # 1.00000 0 0 0.0000         0.2 #perco0.05a # 0 0 0 0.9000        
hyd0165 #lat_ttime0a # 0 1 #esco0.95a # 1.00000 0 0 #cn3_swf0.3a # 0.2 #perco0.5a #  0 0 0 #latq_co0.2a #
hyd0166 #lat_ttime0a # 0 1 #esco0.95a # 1.00000 0 0 0.0000         0.2 #perco0.05a # 0 0 0 0.9000        
hyd0167 #lat_ttime0a # 0 1 #esco0.95a # 1.00000 0 0 0.0000         0.2 #perco0.05a # 0 0 0 0.9000        
hyd0168 #lat_ttime0a # 0 1 #esco0.95a # 1.00000 0 0 #cn3_swf0.3a # 0.2 #perco0.5a #  0 0 0 #latq_co0.2a #
hyd0169 #lat_ttime0a # 0 1 #esco0.95a # 1.00000 0 0 0.0000         0.2 #perco0.05a # 0 0 0 0.9000        
hyd0170 #lat_ttime0a # 0 1 #esco0.95a # 1.00000 0 0 0.0000         0.2 #perco0.05a # 0 0 0 0.9000        
hyd0171 #lat_ttime0a # 0 1 #esco0.95a # 1.00000 0 0 #cn3_swf0.3a # 0.2 #perco0.5a #  0 0 0 #latq_co0.2a #
hyd0172 #lat_ttime0a # 0 1 #esco0.95a # 1.00000 0 0 0.0000         0.2 #perco0.05a # 0 0 0 0.9000        
hyd0173 #lat_ttime0a # 0 1 #esco0.95a # 1.00000 0 0 #cn3_swf0.3a # 0.2 #perco0.5a #  0 0 0 #latq_co0.2a #
hyd0174 #lat_ttime0a # 0 1 #esco0.95a # 1.00000 0 0 0.0000         0.2 #perco0.05a # 0 0 0 0.9000        
hyd0175 #lat_ttime0a # 0 1 #esco0.95a # 1.00000 0 0 0.0000         0.2 #perco0.05a # 0 0 0 0.9000        
hyd0176 #lat_ttime0a # 0 1 #esco0.95a # 1.00000 0 0 0.0000         0.2 #perco0.05a # 0 0 0 0.9000        
hyd0177 #lat_ttime0a # 0 1 #esco0.95a # 1.00000 0 0 0.0000         0.2 #perco0.05a # 0 0 0 0.9000        
hyd0178 #lat_ttime0a # 0 1 #esco0.95a # 1.00000 0 0 #cn3_swf0.3a # 0.2 #perco0.5a #  0 0 0 #latq_co0.2a #
hyd0179 #lat_ttime0a # 0 1 #esco0.95a # 1.00000 0 0 0.0000         0.2 #perco0.05a # 0 0 0 0.9000        
hyd0180 #lat_ttime0a # 0 1 #esco0.95a # 1.00000 0 0 0.0000         0.2 #perco0.05a # 0 0 0 0.9000        
hyd0181 #lat_ttime0a # 0 1 #esco0.95a # 1.00000 0 0 0.0000         0.2 #perco0.05a # 0 0 0 0.9000        
hyd0182 #lat_ttime0a # 0 1 #esco0.95a # 1.00000 0 0 0.0000         0.2 #perco0.05a # 0 0 0 0.9000        
hyd0183 #lat_ttime0a # 0 1 #esco0.95a # 1.00000 0 0 #cn3_swf0.3a # 0.2 #perco0.5a #  0 0 0 #latq_co0.2a #
hyd0184 #lat_ttime0a # 0 1 #esco0.95a # 1.00000 0 0 0.0000         0.2 #perco0.05a # 0 0 0 0.9000        
hyd0185 #lat_ttime0a # 0 1 #esco0.95a # 1.00000 0 0 0.0000         0.2 #perco0.05a # 0 0 0 0.9000        
hyd0186 #lat_ttime0a # 0 1 #esco0.95a # 1.00000 0 0 #cn3_swf0.3a # 0.2 #perco0.5a #  0 0 0 #latq_co0.2a #
hyd0187 #lat_ttime0a # 0 1 #esco0.95a # 1.00000 0 0 #cn3_swf0.3a # 0.2 #perco0.5a #  0 0 0 #latq_co0.2a #
hyd0188 #lat_ttime0a # 0 1 #esco0.95a # 1.00000 0 0 0.0000         0.2 #perco0.05a # 0 0 0 0.9000        
hyd0189 #lat_ttime0a # 0 1 #esco0.95a # 1.00000 0 0 0.0000         0.2 #perco0.05a # 0 0 0 0.9000        
hyd0190 #lat_ttime0a # 0 1 #esco0.95a # 1.00000 0 0 0.0000         0.2 #perco0.05a # 0 0 0 0.9000        
hyd0191 #lat_ttime0a # 0 1 #esco0.95a # 1.00000 0 0 0.0000         0.2 #perco0.05a # 0 0 0 0.9000        
hyd0192 #lat_ttime0a # 0 1 #esco0.95a # 1.00000 0 0 0.0000         0.2 #perco0.05a # 0 0 0 0.9000        
hyd0193 #lat_ttime0a # 0 1 #esco0.95a # 1.00000 0 0 0.0000         0.2 #perco0.05a # 0 0 0 0.9000        
hyd0194 #lat_ttime0a # 0 1 #esco0.95a # 1.00000 0 0 0.0000         0.2 #perco0.05a # 0 0 0 0.9000        
hyd0195 #lat_ttime0a # 0 1 #esco0.95a # 1.00000 0 0 #cn3_swf0.3a # 0.2 #perco0.5a #  0 0 0 #latq_co0.2a #
hyd0196 #lat_ttime0a # 0 1 #esco0.95a # 1.00000 0 0 #cn3_swf0.3a # 0.2 #perco0.5a #  0 0 0 #latq_co0.2a #
hyd0197 #lat_ttime0a # 0 1 #esco0.95a # 1.00000 0 0 0.0000         0.2 #perco0.05a # 0 0 0 0.9000        
hyd0198 #lat_ttime0a # 0 1 #esco0.95a # 1.00000 0 0 #cn3_swf0.3a # 0.2 #perco0.5a #  0 0 0 #latq_co0.2a #
hyd0199 #lat_ttime0a # 0 1 #esco0.95a # 1.00000 0 0 0.0000         0.2 #perco0.05a # 0 0 0 0.9000        
hyd0200 #lat_ttime0a # 0 1 #esco0.95a # 1.00000 0 0 0.0000         0.2 #perco0.05a # 0 0 0 0.9000        
hyd0201 #lat_ttime0a # 0 1 #esco0.95a # 1.00000 0 0 0.0000         0.2 #perco0.05a # 0 0 0 0.9000        
hyd0202 #lat_ttime0a # 0 1 #esco0.95a # 1.00000 0 0 0.0000         0.2 #perco0.05a # 0 0 0 0.9000        
hyd0203 #lat_ttime0a # 0 1 #esco0.95a # 1.00000 0 0 #cn3_swf0.3a # 0.2 #perco0.5a #  0 0 0 #latq_co0.2a #
hyd0204 #lat_ttime0a # 0 1 #esco0.95a # 1.00000 0 0 0.0000         0.2 #perco0.05a # 0 0 0 0.9000        
hyd0205 #lat_ttime0a # 0 1 #esco0.95a # 1.00000 0 0 #cn3_swf0.3a # 0.2 #perco0.5a #  0 0 0 #latq_co0.2a #
hyd0206 #lat_ttime0a # 0 1 #esco0.95a # 1.00000 0 0 0.0000         0.2 #perco0.05a # 0 0 0 0.9000        
hyd0207 #lat_ttime0a # 0 1 #esco0.95a # 1.00000 0 0 #cn3_swf0.3a # 0.2 #perco0.5a #  0 0 0 #latq_co0.2a #
hyd0208 #lat_ttime0a # 0 1 #esco0.95a # 1.00000 0 0 0.0000         0.2 #perco0.05a # 0 0 0 0.9000        
hyd0209 #lat_ttime0a # 0 1 #esco0.95a # 1.00000 0 0 0.0000         0.2 #perco0.05a # 0 0 0 0.9000        
hyd0210 #lat_ttime0a # 0 1 #esco0.95a # 1.00000 0 0 0.0000         0.2 #perco0.05a # 0 0 0 0.9000        
hyd0211 #lat_ttime0a # 0 1 #esco0.95a # 1.00000 0 0 0.0000         0.2 #perco0.05a # 0 0 0 0.9000        
hyd0212 #lat_ttime0a # 0 1 #esco0.95a # 1.00000 0 0 #cn3_swf0.3a # 0.2 #perco0.5a #  0 0 0 #latq_co0.2a #
hyd0213 #lat_ttime0a # 0 1 #esco0.95a # 1.00000 0 0 0.0000         0.2 #perco0.05a # 0 0 0 0.9000        
hyd0214 #lat_ttime0a # 0 1 #esco0.95a # 1.00000 0 0 #cn3_swf0.3a # 0.2 #perco0.5a #  0 0 0 #latq_co0.2a #
hyd0215 #lat_ttime0a # 0 1 #esco0.95a # 1.00000 0 0 #cn3_swf0.3a # 0.2 #perco0.5a #  0 0 0 #latq_co0.2a #
hyd0216 #lat_ttime0a # 0 1 #esco0.95a # 1.00000 0 0 0.0000         0.2 #perco0.05a # 0 0 0 0.9000        
hyd0217 #lat_ttime0a # 0 1 #esco0.95a # 1.00000 0 0 0.0000         0.2 #perco0.05a # 0 0 0 0.9000        
hyd0218 #lat_ttime0a # 0 1 #esco0.95a # 1.00000 0 0 #cn3_swf0.3a # 0.2 #perco0.5a #  0 0 0 #latq_co0.2a #
hyd0219 #lat_ttime0a # 0 1 #esco0.95a # 1.00000 0 0 0.0000         0.2 #perco0.05a # 0 0 0 0.9000        
hyd0220 #lat_ttime0a # 0 1 #esco0.95a # 1.00000 0 0 0.0000         0.2 #perco0.05a # 0 0 0 0.9000        
hyd0221 #lat_ttime0a # 0 1 #esco0.95a # 1.00000 0 0 #cn3_swf0.3a # 0.2 #perco0.5a #  0 0 0 #latq_co0.2a #
hyd0222 #lat_ttime0a # 0 1 #esco0.95a # 1.00000 0 0 0.0000         0.2 #perco0.05a # 0 0 0 0.9000        
hyd0223 #lat_ttime0a # 0 1 #esco0.95a # 1.00000 0 0 0.0000         0.2 #perco0.05a # 0 0 0 0.9000        
hyd0224 #lat_ttime0a # 0 1 #esco0.95a # 1.00000 0 0 0.0000         0.2 #perco0.05a # 0 0 0 0.9000        
hyd0225 #lat_ttime0a # 0 1 #esco0.95a # 1.00000 0 0 #cn3_swf0.3a # 0.2 #perco0.5a #  0 0 0 #latq_co0.2a #
hyd0226 #lat_ttime0a # 0 1 #esco0.95a # 1.00000 0 0 0.0000         0.2 #perco0.05a # 0 0 0 0.9000        
hyd0227 #lat_ttime0a # 0 1 #esco0.95a # 1.00000 0 0 #cn3_swf0.3a # 0.2 #perco0.5a #  0 0 0 #latq_co0.2a #
hyd0228 #lat_ttime0a # 0 1 #esco0.95a # 1.00000 0 0 #cn3_swf0.3a # 0.2 #perco0.5a #  0 0 0 #latq_co0.2a #
hyd0229 #lat_ttime0a # 0 1 #esco0.95a # 1.00000 0 0 0.0000         0.2 #perco0.05a # 0 0 0 0.9000        
hyd0230 #lat_ttime0a # 0 1 #esco0.95a # 1.00000 0 0 0.0000         0.2 #perco0.05a # 0 0 0 0.9000        
hyd0231 #lat_ttime0a # 0 1 #esco0.95a # 1.00000 0 0 #cn3_swf0.3a # 0.2 #perco0.5a #  0 0 0 #latq_co0.2a #
hyd0232 #lat_ttime0a # 0 1 #esco0.95a # 1.00000 0 0 0.0000         0.2 #perco0.05a # 0 0 0 0.9000        
hyd0233 #lat_ttime0a # 0 1 #esco0.95a # 1.00000 0 0 0.0000         0.2 #perco0.05a # 0 0 0 0.9000        
hyd0234 #lat_ttime0a # 0 1 #esco0.95a # 1.00000 0 0 #cn3_swf0.3a # 0.2 #perco0.5a #  0 0 0 #latq_co0.2a #
hyd0235 #lat_ttime0a # 0 1 #esco0.95a # 1.00000 0 0 0.0000         0.2 #perco0.05a # 0 0 0 0.9000        
hyd0236 #lat_ttime0a # 0 1 #esco0.95a # 1.00000 0 0 #cn3_swf0.3a # 0.2 #perco0.5a #  0 0 0 #latq_co0.2a #
hyd0237 #lat_ttime0a # 0 1 #esco0.95a # 1.00000 0 0 0.0000         0.2 #perco0.05a # 0 0 0 0.9000        
hyd0238 #lat_ttime0a # 0 1 #esco0.95a # 1.00000 0 0 0.0000         0.2 #perco0.05a # 0 0 0 0.9000        
hyd0239 #lat_ttime0a # 0 1 #esco0.95a # 1.00000 0 0 0.0000         0.2 #perco0.05a # 0 0 0 0.9000        
hyd0240 #lat_ttime0a # 0 1 #esco0.95a # 1.00000 0 0 #cn3_swf0.3a # 0.2 #perco0.5a #  0 0 0 #latq_co0.2a #
hyd0241 #lat_ttime0a # 0 1 #esco0.95a # 1.00000 0 0 0.0000         0.2 #perco0.05a # 0 0 0 0.9000        
hyd0242 #lat_ttime0a # 0 1 #esco0.95a # 1.00000 0 0 0.0000         0.2 #perco0.05a # 0 0 0 0.9000        
hyd0243 #lat_ttime0a # 0 1 #esco0.95a # 1.00000 0 0 #cn3_swf0.3a # 0.2 #perco0.5a #  0 0 0 #latq_co0.2a #
hyd0244 #lat_ttime0a # 0 1 #esco0.95a # 1.00000 0 0 #cn3_swf0.3a # 0.2 #perco0.5a #  0 0 0 #latq_co0.2a #
hyd0245 #lat_ttime0a # 0 1 #esco0.95a # 1.00000 0 0 0.0000         0.2 #perco0.05a # 0 0 0 0.9000        
hyd0246 #lat_ttime0a # 0 1 #esco0.95a # 1.00000 0 0 0.0000         0.2 #perco0.05a # 0 0 0 0.9000        
hyd0247 #lat_ttime0a # 0 1 #esco0.95a # 1.00000 0 0 #cn3_swf0.3a # 0.2 #perco0.5a #  0 0 0 #latq_co0.2a #
hyd0248 #lat_ttime0a # 0 1 #esco0.95a # 1.00000 0 0 #cn3_swf0.3a # 0.2 #perco0.5a #  0 0 0 #latq_co0.2a #
hyd0249 #lat_ttime0a # 0 1 #esco0.95a # 1.00000 0 0 0.0000         0.2 #perco0.05a # 0 0 0 0.9000        
hyd0250 #lat_ttime0a # 0 1 #esco0.95a # 1.00000 0 0 0.0000         0.2 #perco0.05a # 0 0 0 0.9000        
hyd0251 #lat_ttime0a # 0 1 #esco0.95a # 1.00000 0 0 #cn3_swf0.3a # 0.2 #perco0.5a #  0 0 0 #latq_co0.2a #
hyd0252 #lat_ttime0a # 0 1 #esco0.95a # 1.00000 0 0 0.0000         0.2 #perco0.05a # 0 0 0 0.9000        
hyd0253 #lat_ttime0a # 0 1 #esco0.95a # 1.00000 0 0 0.0000         0.2 #perco0.05a # 0 0 0 0.9000        
hyd0254 #lat_ttime0a # 0 1 #esco0.95a # 1.00000 0 0 #cn3_swf0.3a # 0.2 #perco0.5a #  0 0 0 #latq_co0.2a #
hyd0255 #lat_ttime0a # 0 1 #esco0.95a # 1.00000 0 0 #cn3_swf0.3a # 0.2 #perco0.5a #  0 0 0 #latq_co0.2a #
hyd0256 #lat_ttime0a # 0 1 #esco0.95a # 1.00000 0 0 0.0000         0.2 #perco0.05a # 0 0 0 0.9000        
hyd0257 #lat_ttime0a # 0 1 #esco0.95a # 1.00000 0 0 0.0000         0.2 #perco0.05a # 0 0 0 0.9000        
hyd0258 #lat_ttime0a # 0 1 #esco0.95a # 1.00000 0 0 0.0000         0.2 #perco0.05a # 0 0 0 0.9000        
hyd0259 #lat_ttime0a # 0 1 #esco0.95a # 1.00000 0 0 0.0000         0.2 #perco0.05a # 0 0 0 0.9000        
hyd0260 #lat_ttime0a # 0 1 #esco0.95a # 1.00000 0 0 #cn3_swf0.3a # 0.2 #perco0.5a #  0 0 0 #latq_co0.2a #
hyd0261 #lat_ttime0a # 0 1 #esco0.95a # 1.00000 0 0 0.0000         0.2 #perco0.05a # 0 0 0 0.9000        
hyd0262 #lat_ttime0a # 0 1 #esco0.95a # 1.00000 0 0 #cn3_swf0.3a # 0.2 #perco0.5a #  0 0 0 #latq_co0.2a #
hyd0263 #lat_ttime0a # 0 1 #esco0.95a # 1.00000 0 0 0.0000         0.2 #perco0.05a # 0 0 0 0.9000        
hyd0264 #lat_ttime0a # 0 1 #esco0.95a # 1.00000 0 0 0.0000         0.2 #perco0.05a # 0 0 0 0.9000        
hyd0265 #lat_ttime0a # 0 1 #esco0.95a # 1.00000 0 0 #cn3_swf0.3a # 0.2 #perco0.5a #  0 0 0 #latq_co0.2a #
hyd0266 #lat_ttime0a # 0 1 #esco0.95a # 1.00000 0 0 0.0000         0.2 #perco0.05a # 0 0 0 0.9000        
hyd0267 #lat_ttime0a # 0 1 #esco0.95a # 1.00000 0 0 #cn3_swf0.3a # 0.2 #perco0.5a #  0 0 0 #latq_co0.2a #
hyd0268 #lat_ttime0a # 0 1 #esco0.95a # 1.00000 0 0 0.0000         0.2 #perco0.05a # 0 0 0 0.9000        
hyd0269 #lat_ttime0a # 0 1 #esco0.95a # 1.00000 0 0 #cn3_swf0.3a # 0.2 #perco0.5a #  0 0 0 #latq_co0.2a #
hyd0270 #lat_ttime0a # 0 1 #esco0.95a # 1.00000 0 0 #cn3_swf0.3a # 0.2 #perco0.5a #  0 0 0 #latq_co0.2a #
hyd0271 #lat_ttime0a # 0 1 #esco0.95a # 1.00000 0 0 0.0000         0.2 #perco0.05a # 0 0 0 0.9000        
hyd0272 #lat_ttime0a # 0 1 #esco0.95a # 1.00000 0 0 0.0000         0.2 #perco0.05a # 0 0 0 0.9000        
hyd0273 #lat_ttime0a # 0 1 #esco0.95a # 1.00000 0 0 #cn3_swf0.3a # 0.2 #perco0.5a #  0 0 0 #latq_co0.2a #
hyd0274 #lat_ttime0a # 0 1 #esco0.95a # 1.00000 0 0 #cn3_swf0.3a # 0.2 #perco0.5a #  0 0 0 #latq_co0.2a #
hyd0275 #lat_ttime0a # 0 1 #esco0.95a # 1.00000 0 0 0.0000         0.2 #perco0.05a # 0 0 0 0.9000        
hyd0276 #lat_ttime0a # 0 1 #esco0.95a # 1.00000 0 0 #cn3_swf0.3a # 0.2 #perco0.5a #  0 0 0 #latq_co0.2a #
hyd0277 #lat_ttime0a # 0 1 #esco0.95a # 1.00000 0 0 0.0000         0.2 #perco0.05a # 0 0 0 0.9000        
hyd0278 #lat_ttime0a # 0 1 #esco0.95a # 1.00000 0 0 0.0000         0.2 #perco0.05a # 0 0 0 0.9000        
hyd0279 #lat_ttime0a # 0 1 #esco0.95a # 1.00000 0 0 0.0000         0.2 #perco0.05a # 0 0 0 0.9000        
hyd0280 #lat_ttime0a # 0 1 #esco0.95a # 1.00000 0 0 0.0000         0.2 #perco0.05a # 0 0 0 0.9000        