hydrology.hyd: written by SWAT+ editor v2.1.4 on 2022-11-22 14:57 for SWAT+ rev.60.5.4, edited perco, cn3_swf, and latq_co according to Lebon et al. (2022) on 2023-03-29 11:56:31
name lat_ttime lat_sed can_max esco epco orgn_enrich orgp_enrich cn3_swf bio_mix perco lat_orgn lat_orgp harg_pet latq_co
hyd0001  6.2101900E-01 0 1 .16071800000 1.00000 0 0  6.7593900E-01 0.2 .39960300000  0 0 0  7.8301400E-02
hyd0002  6.2101900E-01 0 1 .16071800000 1.00000 0 0 0.0000         0.2 1.0000000E+00 0 0 0 0.9000
hyd0003  6.2101900E-01 0 1 .16071800000 1.00000 0 0 0.0000         0.2 1.0000000E+00 0 0 0 0.9000
hyd0004  6.2101900E-01 0 1 .16071800000 1.00000 0 0 0.0000         0.2 1.0000000E+00 0 0 0 0.9000
hyd0005  6.2101900E-01 0 1 .16071800000 1.00000 0 0  6.7593900E-01 0.2 .39960300000  0 0 0  7.8301400E-02
hyd0006  6.2101900E-01 0 1 .16071800000 1.00000 0 0  6.7593900E-01 0.2 .39960300000  0 0 0  7.8301400E-02
hyd0007  6.2101900E-01 0 1 .16071800000 1.00000 0 0 0.0000         0.2 1.0000000E+00 0 0 0 0.9000
hyd0008  6.2101900E-01 0 1 .16071800000 1.00000 0 0 0.0000         0.2 1.0000000E+00 0 0 0 0.9000
hyd0009  6.2101900E-01 0 1 .16071800000 1.00000 0 0  6.7593900E-01 0.2 .39960300000  0 0 0  7.8301400E-02
hyd0010  6.2101900E-01 0 1 .16071800000 1.00000 0 0 0.0000         0.2 1.0000000E+00 0 0 0 0.9000
hyd0011  6.2101900E-01 0 1 .16071800000 1.00000 0 0 0.0000         0.2 1.0000000E+00 0 0 0 0.9000
hyd0012  6.2101900E-01 0 1 .16071800000 1.00000 0 0  6.7593900E-01 0.2 .39960300000  0 0 0  7.8301400E-02
hyd0013  6.2101900E-01 0 1 .16071800000 1.00000 0 0 0.0000         0.2 1.0000000E+00 0 0 0 0.9000
hyd0014  6.2101900E-01 0 1 .16071800000 1.00000 0 0 0.0000         0.2 1.0000000E+00 0 0 0 0.9000
hyd0015  6.2101900E-01 0 1 .16071800000 1.00000 0 0  6.7593900E-01 0.2 .39960300000  0 0 0  7.8301400E-02
hyd0016  6.2101900E-01 0 1 .16071800000 1.00000 0 0 0.0000         0.2 1.0000000E+00 0 0 0 0.9000
hyd0017  6.2101900E-01 0 1 .16071800000 1.00000 0 0 0.0000         0.2 1.0000000E+00 0 0 0 0.9000
hyd0018  6.2101900E-01 0 1 .16071800000 1.00000 0 0  6.7593900E-01 0.2 .39960300000  0 0 0  7.8301400E-02
hyd0019  6.2101900E-01 0 1 .16071800000 1.00000 0 0 0.0000         0.2 1.0000000E+00 0 0 0 0.9000
hyd0020  6.2101900E-01 0 1 .16071800000 1.00000 0 0  6.7593900E-01 0.2 .39960300000  0 0 0  7.8301400E-02
hyd0021  6.2101900E-01 0 1 .16071800000 1.00000 0 0 0.0000         0.2 1.0000000E+00 0 0 0 0.9000
hyd0022  6.2101900E-01 0 1 .16071800000 1.00000 0 0 0.0000         0.2 1.0000000E+00 0 0 0 0.9000
hyd0023  6.2101900E-01 0 1 .16071800000 1.00000 0 0 0.0000         0.2 1.0000000E+00 0 0 0 0.9000
hyd0024  6.2101900E-01 0 1 .16071800000 1.00000 0 0  6.7593900E-01 0.2 .39960300000  0 0 0  7.8301400E-02
hyd0025  6.2101900E-01 0 1 .16071800000 1.00000 0 0 0.0000         0.2 1.0000000E+00 0 0 0 0.9000
hyd0026  6.2101900E-01 0 1 .16071800000 1.00000 0 0 0.0000         0.2 1.0000000E+00 0 0 0 0.9000
hyd0027  6.2101900E-01 0 1 .16071800000 1.00000 0 0  6.7593900E-01 0.2 .39960300000  0 0 0  7.8301400E-02
hyd0028  6.2101900E-01 0 1 .16071800000 1.00000 0 0 0.0000         0.2 1.0000000E+00 0 0 0 0.9000
hyd0029  6.2101900E-01 0 1 .16071800000 1.00000 0 0 0.0000         0.2 1.0000000E+00 0 0 0 0.9000
hyd0030  6.2101900E-01 0 1 .16071800000 1.00000 0 0  6.7593900E-01 0.2 .39960300000  0 0 0  7.8301400E-02
hyd0031  6.2101900E-01 0 1 .16071800000 1.00000 0 0 0.0000         0.2 1.0000000E+00 0 0 0 0.9000
hyd0032  6.2101900E-01 0 1 .16071800000 1.00000 0 0  6.7593900E-01 0.2 .39960300000  0 0 0  7.8301400E-02
hyd0033  6.2101900E-01 0 1 .16071800000 1.00000 0 0 0.0000         0.2 1.0000000E+00 0 0 0 0.9000
hyd0034  6.2101900E-01 0 1 .16071800000 1.00000 0 0  6.7593900E-01 0.2 .39960300000  0 0 0  7.8301400E-02
hyd0035  6.2101900E-01 0 1 .16071800000 1.00000 0 0 0.0000         0.2 1.0000000E+00 0 0 0 0.9000
hyd0036  6.2101900E-01 0 1 .16071800000 1.00000 0 0 0.0000         0.2 1.0000000E+00 0 0 0 0.9000
hyd0037  6.2101900E-01 0 1 .16071800000 1.00000 0 0  6.7593900E-01 0.2 .39960300000  0 0 0  7.8301400E-02
hyd0038  6.2101900E-01 0 1 .16071800000 1.00000 0 0 0.0000         0.2 1.0000000E+00 0 0 0 0.9000
hyd0039  6.2101900E-01 0 1 .16071800000 1.00000 0 0 0.0000         0.2 1.0000000E+00 0 0 0 0.9000
hyd0040  6.2101900E-01 0 1 .16071800000 1.00000 0 0 0.0000         0.2 1.0000000E+00 0 0 0 0.9000
hyd0041  6.2101900E-01 0 1 .16071800000 1.00000 0 0 0.0000         0.2 1.0000000E+00 0 0 0 0.9000
hyd0042  6.2101900E-01 0 1 .16071800000 1.00000 0 0 0.0000         0.2 1.0000000E+00 0 0 0 0.9000
hyd0043  6.2101900E-01 0 1 .16071800000 1.00000 0 0 0.0000         0.2 1.0000000E+00 0 0 0 0.9000
hyd0044  6.2101900E-01 0 1 .16071800000 1.00000 0 0 0.0000         0.2 1.0000000E+00 0 0 0 0.9000
hyd0045  6.2101900E-01 0 1 .16071800000 1.00000 0 0 0.0000         0.2 1.0000000E+00 0 0 0 0.9000
hyd0046  6.2101900E-01 0 1 .16071800000 1.00000 0 0 0.0000         0.2 1.0000000E+00 0 0 0 0.9000
hyd0047  6.2101900E-01 0 1 .16071800000 1.00000 0 0 0.0000         0.2 1.0000000E+00 0 0 0 0.9000
hyd0048  6.2101900E-01 0 1 .16071800000 1.00000 0 0  6.7593900E-01 0.2 .39960300000  0 0 0  7.8301400E-02
hyd0049  6.2101900E-01 0 1 .16071800000 1.00000 0 0 0.0000         0.2 1.0000000E+00 0 0 0 0.9000
hyd0050  6.2101900E-01 0 1 .16071800000 1.00000 0 0  6.7593900E-01 0.2 .39960300000  0 0 0  7.8301400E-02
hyd0051  6.2101900E-01 0 1 .16071800000 1.00000 0 0 0.0000         0.2 1.0000000E+00 0 0 0 0.9000
hyd0052  6.2101900E-01 0 1 .16071800000 1.00000 0 0 0.0000         0.2 .39960300000  0 0 0 0.9000
hyd0053  6.2101900E-01 0 1 .16071800000 1.00000 0 0  6.7593900E-01 0.2 .39960300000  0 0 0  7.8301400E-02
hyd0054  6.2101900E-01 0 1 .16071800000 1.00000 0 0 0.0000         0.2 1.0000000E+00 0 0 0 0.9000
hyd0055  6.2101900E-01 0 1 .16071800000 1.00000 0 0  6.7593900E-01 0.2 .39960300000  0 0 0  7.8301400E-02
hyd0056  6.2101900E-01 0 1 .16071800000 1.00000 0 0  6.7593900E-01 0.2 .39960300000  0 0 0  7.8301400E-02
hyd0057  6.2101900E-01 0 1 .16071800000 1.00000 0 0 0.0000         0.2 1.0000000E+00 0 0 0 0.9000
hyd0058  6.2101900E-01 0 1 .16071800000 1.00000 0 0 0.0000         0.2 .39960300000  0 0 0 0.9000
hyd0059  6.2101900E-01 0 1 .16071800000 1.00000 0 0  6.7593900E-01 0.2 .39960300000  0 0 0  7.8301400E-02
hyd0060  6.2101900E-01 0 1 .16071800000 1.00000 0 0  6.7593900E-01 0.2 .39960300000  0 0 0  7.8301400E-02
hyd0061  6.2101900E-01 0 1 .16071800000 1.00000 0 0 0.0000         0.2 1.0000000E+00 0 0 0 0.9000
hyd0062  6.2101900E-01 0 1 .16071800000 1.00000 0 0 0.0000         0.2 1.0000000E+00 0 0 0 0.9000
hyd0063  6.2101900E-01 0 1 .16071800000 1.00000 0 0  6.7593900E-01 0.2 .39960300000  0 0 0  7.8301400E-02
hyd0064  6.2101900E-01 0 1 .16071800000 1.00000 0 0 0.0000         0.2 1.0000000E+00 0 0 0 0.9000
hyd0065  6.2101900E-01 0 1 .16071800000 1.00000 0 0 0.0000         0.2 1.0000000E+00 0 0 0 0.9000
hyd0066  6.2101900E-01 0 1 .16071800000 1.00000 0 0  6.7593900E-01 0.2 .39960300000  0 0 0  7.8301400E-02
hyd0067  6.2101900E-01 0 1 .16071800000 1.00000 0 0 0.0000         0.2 1.0000000E+00 0 0 0 0.9000
hyd0068  6.2101900E-01 0 1 .16071800000 1.00000 0 0 0.0000         0.2 1.0000000E+00 0 0 0 0.9000
hyd0069  6.2101900E-01 0 1 .16071800000 1.00000 0 0  6.7593900E-01 0.2 .39960300000  0 0 0  7.8301400E-02
hyd0070  6.2101900E-01 0 1 .16071800000 1.00000 0 0 0.0000         0.2 1.0000000E+00 0 0 0 0.9000
hyd0071  6.2101900E-01 0 1 .16071800000 1.00000 0 0 0.0000         0.2 1.0000000E+00 0 0 0 0.9000
hyd0072  6.2101900E-01 0 1 .16071800000 1.00000 0 0 0.0000         0.2 1.0000000E+00 0 0 0 0.9000
hyd0073  6.2101900E-01 0 1 .16071800000 1.00000 0 0  6.7593900E-01 0.2 .39960300000  0 0 0  7.8301400E-02
hyd0074  6.2101900E-01 0 1 .16071800000 1.00000 0 0 0.0000         0.2 1.0000000E+00 0 0 0 0.9000
hyd0075  6.2101900E-01 0 1 .16071800000 1.00000 0 0 0.0000         0.2 1.0000000E+00 0 0 0 0.9000
hyd0076  6.2101900E-01 0 1 .16071800000 1.00000 0 0  6.7593900E-01 0.2 .39960300000  0 0 0  7.8301400E-02
hyd0077  6.2101900E-01 0 1 .16071800000 1.00000 0 0  6.7593900E-01 0.2 .39960300000  0 0 0  7.8301400E-02
hyd0078  6.2101900E-01 0 1 .16071800000 1.00000 0 0 0.0000         0.2 1.0000000E+00 0 0 0 0.9000
hyd0079  6.2101900E-01 0 1 .16071800000 1.00000 0 0 0.0000         0.2 1.0000000E+00 0 0 0 0.9000
hyd0080  6.2101900E-01 0 1 .16071800000 1.00000 0 0 0.0000         0.2 1.0000000E+00 0 0 0 0.9000
hyd0081  6.2101900E-01 0 1 .16071800000 1.00000 0 0  6.7593900E-01 0.2 .39960300000  0 0 0  7.8301400E-02
hyd0082  6.2101900E-01 0 1 .16071800000 1.00000 0 0 0.0000         0.2 1.0000000E+00 0 0 0 0.9000
hyd0083  6.2101900E-01 0 1 .16071800000 1.00000 0 0 0.0000         0.2 1.0000000E+00 0 0 0 0.9000
hyd0084  6.2101900E-01 0 1 .16071800000 1.00000 0 0  6.7593900E-01 0.2 .39960300000  0 0 0  7.8301400E-02
hyd0085  6.2101900E-01 0 1 .16071800000 1.00000 0 0 0.0000         0.2 1.0000000E+00 0 0 0 0.9000
hyd0086  6.2101900E-01 0 1 .16071800000 1.00000 0 0 0.0000         0.2 1.0000000E+00 0 0 0 0.9000
hyd0087  6.2101900E-01 0 1 .16071800000 1.00000 0 0 0.0000         0.2 1.0000000E+00 0 0 0 0.9000
hyd0088  6.2101900E-01 0 1 .16071800000 1.00000 0 0 0.0000         0.2 1.0000000E+00 0 0 0 0.9000
hyd0089  6.2101900E-01 0 1 .16071800000 1.00000 0 0 0.0000         0.2 1.0000000E+00 0 0 0 0.9000
hyd0090  6.2101900E-01 0 1 .16071800000 1.00000 0 0 0.0000         0.2 1.0000000E+00 0 0 0 0.9000
hyd0091  6.2101900E-01 0 1 .16071800000 1.00000 0 0 0.0000         0.2 1.0000000E+00 0 0 0 0.9000
hyd0092  6.2101900E-01 0 1 .16071800000 1.00000 0 0  6.7593900E-01 0.2 .39960300000  0 0 0  7.8301400E-02
hyd0093  6.2101900E-01 0 1 .16071800000 1.00000 0 0 0.0000         0.2 1.0000000E+00 0 0 0 0.9000
hyd0094  6.2101900E-01 0 1 .16071800000 1.00000 0 0  6.7593900E-01 0.2 .39960300000  0 0 0  7.8301400E-02
hyd0095  6.2101900E-01 0 1 .16071800000 1.00000 0 0  6.7593900E-01 0.2 .39960300000  0 0 0  7.8301400E-02
hyd0096  6.2101900E-01 0 1 .16071800000 1.00000 0 0 0.0000         0.2 1.0000000E+00 0 0 0 0.9000
hyd0097  6.2101900E-01 0 1 .16071800000 1.00000 0 0 0.0000         0.2 1.0000000E+00 0 0 0 0.9000
hyd0098  6.2101900E-01 0 1 .16071800000 1.00000 0 0  6.7593900E-01 0.2 .39960300000  0 0 0  7.8301400E-02
hyd0099  6.2101900E-01 0 1 .16071800000 1.00000 0 0 0.0000         0.2 1.0000000E+00 0 0 0 0.9000
hyd0100  6.2101900E-01 0 1 .16071800000 1.00000 0 0 0.0000         0.2 1.0000000E+00 0 0 0 0.9000
hyd0101  6.2101900E-01 0 1 .16071800000 1.00000 0 0  6.7593900E-01 0.2 .39960300000  0 0 0  7.8301400E-02
hyd0102  6.2101900E-01 0 1 .16071800000 1.00000 0 0  6.7593900E-01 0.2 .39960300000  0 0 0  7.8301400E-02
hyd0103  6.2101900E-01 0 1 .16071800000 1.00000 0 0 0.0000         0.2 1.0000000E+00 0 0 0 0.9000
hyd0104  6.2101900E-01 0 1 .16071800000 1.00000 0 0 0.0000         0.2 1.0000000E+00 0 0 0 0.9000
hyd0105  6.2101900E-01 0 1 .16071800000 1.00000 0 0 0.0000         0.2 1.0000000E+00 0 0 0 0.9000
hyd0106  6.2101900E-01 0 1 .16071800000 1.00000 0 0 0.0000         0.2 1.0000000E+00 0 0 0 0.9000
hyd0107  6.2101900E-01 0 1 .16071800000 1.00000 0 0 0.0000         0.2 1.0000000E+00 0 0 0 0.9000
hyd0108  6.2101900E-01 0 1 .16071800000 1.00000 0 0  6.7593900E-01 0.2 .39960300000  0 0 0  7.8301400E-02
hyd0109  6.2101900E-01 0 1 .16071800000 1.00000 0 0 0.0000         0.2 1.0000000E+00 0 0 0 0.9000
hyd0110  6.2101900E-01 0 1 .16071800000 1.00000 0 0 0.0000         0.2 1.0000000E+00 0 0 0 0.9000
hyd0111  6.2101900E-01 0 1 .16071800000 1.00000 0 0  6.7593900E-01 0.2 .39960300000  0 0 0  7.8301400E-02
hyd0112  6.2101900E-01 0 1 .16071800000 1.00000 0 0 0.0000         0.2 1.0000000E+00 0 0 0 0.9000
hyd0113  6.2101900E-01 0 1 .16071800000 1.00000 0 0  6.7593900E-01 0.2 .39960300000  0 0 0  7.8301400E-02
hyd0114  6.2101900E-01 0 1 .16071800000 1.00000 0 0 0.0000         0.2 1.0000000E+00 0 0 0 0.9000
hyd0115  6.2101900E-01 0 1 .16071800000 1.00000 0 0 0.0000         0.2 1.0000000E+00 0 0 0 0.9000
hyd0116  6.2101900E-01 0 1 .16071800000 1.00000 0 0 0.0000         0.2 1.0000000E+00 0 0 0 0.9000
hyd0117  6.2101900E-01 0 1 .16071800000 1.00000 0 0  6.7593900E-01 0.2 .39960300000  0 0 0  7.8301400E-02
hyd0118  6.2101900E-01 0 1 .16071800000 1.00000 0 0 0.0000         0.2 1.0000000E+00 0 0 0 0.9000
hyd0119  6.2101900E-01 0 1 .16071800000 1.00000 0 0 0.0000         0.2 1.0000000E+00 0 0 0 0.9000
hyd0120  6.2101900E-01 0 1 .16071800000 1.00000 0 0  6.7593900E-01 0.2 .39960300000  0 0 0  7.8301400E-02
hyd0121  6.2101900E-01 0 1 .16071800000 1.00000 0 0  6.7593900E-01 0.2 .39960300000  0 0 0  7.8301400E-02
hyd0122  6.2101900E-01 0 1 .16071800000 1.00000 0 0 0.0000         0.2 1.0000000E+00 0 0 0 0.9000
hyd0123  6.2101900E-01 0 1 .16071800000 1.00000 0 0 0.0000         0.2 1.0000000E+00 0 0 0 0.9000
hyd0124  6.2101900E-01 0 1 .16071800000 1.00000 0 0 0.0000         0.2 1.0000000E+00 0 0 0 0.9000
hyd0125  6.2101900E-01 0 1 .16071800000 1.00000 0 0 0.0000         0.2 1.0000000E+00 0 0 0 0.9000
hyd0126  6.2101900E-01 0 1 .16071800000 1.00000 0 0  6.7593900E-01 0.2 .39960300000  0 0 0  7.8301400E-02
hyd0127  6.2101900E-01 0 1 .16071800000 1.00000 0 0  6.7593900E-01 0.2 .39960300000  0 0 0  7.8301400E-02
hyd0128  6.2101900E-01 0 1 .16071800000 1.00000 0 0 0.0000         0.2 1.0000000E+00 0 0 0 0.9000
hyd0129  6.2101900E-01 0 1 .16071800000 1.00000 0 0 0.0000         0.2 1.0000000E+00 0 0 0 0.9000
hyd0130  6.2101900E-01 0 1 .16071800000 1.00000 0 0 0.0000         0.2 1.0000000E+00 0 0 0 0.9000
hyd0131  6.2101900E-01 0 1 .16071800000 1.00000 0 0 0.0000         0.2 1.0000000E+00 0 0 0 0.9000
hyd0132  6.2101900E-01 0 1 .16071800000 1.00000 0 0  6.7593900E-01 0.2 .39960300000  0 0 0  7.8301400E-02
hyd0133  6.2101900E-01 0 1 .16071800000 1.00000 0 0  6.7593900E-01 0.2 .39960300000  0 0 0  7.8301400E-02
hyd0134  6.2101900E-01 0 1 .16071800000 1.00000 0 0 0.0000         0.2 1.0000000E+00 0 0 0 0.9000
hyd0135  6.2101900E-01 0 1 .16071800000 1.00000 0 0  6.7593900E-01 0.2 .39960300000  0 0 0  7.8301400E-02
hyd0136  6.2101900E-01 0 1 .16071800000 1.00000 0 0  6.7593900E-01 0.2 .39960300000  0 0 0  7.8301400E-02
hyd0137  6.2101900E-01 0 1 .16071800000 1.00000 0 0 0.0000         0.2 1.0000000E+00 0 0 0 0.9000
hyd0138  6.2101900E-01 0 1 .16071800000 1.00000 0 0 0.0000         0.2 1.0000000E+00 0 0 0 0.9000
hyd0139  6.2101900E-01 0 1 .16071800000 1.00000 0 0  6.7593900E-01 0.2 .39960300000  0 0 0  7.8301400E-02
hyd0140  6.2101900E-01 0 1 .16071800000 1.00000 0 0 0.0000         0.2 1.0000000E+00 0 0 0 0.9000
hyd0141  6.2101900E-01 0 1 .16071800000 1.00000 0 0 0.0000         0.2 1.0000000E+00 0 0 0 0.9000
hyd0142  6.2101900E-01 0 1 .16071800000 1.00000 0 0  6.7593900E-01 0.2 .39960300000  0 0 0  7.8301400E-02
hyd0143  6.2101900E-01 0 1 .16071800000 1.00000 0 0 0.0000         0.2 1.0000000E+00 0 0 0 0.9000
hyd0144  6.2101900E-01 0 1 .16071800000 1.00000 0 0 0.0000         0.2 1.0000000E+00 0 0 0 0.9000
hyd0145  6.2101900E-01 0 1 .16071800000 1.00000 0 0  6.7593900E-01 0.2 .39960300000  0 0 0  7.8301400E-02
hyd0146  6.2101900E-01 0 1 .16071800000 1.00000 0 0 0.0000         0.2 1.0000000E+00 0 0 0 0.9000
hyd0147  6.2101900E-01 0 1 .16071800000 1.00000 0 0 0.0000         0.2 1.0000000E+00 0 0 0 0.9000
hyd0148  6.2101900E-01 0 1 .16071800000 1.00000 0 0  6.7593900E-01 0.2 .39960300000  0 0 0  7.8301400E-02
hyd0149  6.2101900E-01 0 1 .16071800000 1.00000 0 0 0.0000         0.2 1.0000000E+00 0 0 0 0.9000
hyd0150  6.2101900E-01 0 1 .16071800000 1.00000 0 0  6.7593900E-01 0.2 .39960300000  0 0 0  7.8301400E-02
hyd0151  6.2101900E-01 0 1 .16071800000 1.00000 0 0 0.0000         0.2 1.0000000E+00 0 0 0 0.9000
hyd0152  6.2101900E-01 0 1 .16071800000 1.00000 0 0 0.0000         0.2 1.0000000E+00 0 0 0 0.9000
hyd0153  6.2101900E-01 0 1 .16071800000 1.00000 0 0 0.0000         0.2 1.0000000E+00 0 0 0 0.9000
hyd0154  6.2101900E-01 0 1 .16071800000 1.00000 0 0  6.7593900E-01 0.2 .39960300000  0 0 0  7.8301400E-02
hyd0155  6.2101900E-01 0 1 .16071800000 1.00000 0 0 0.0000         0.2 1.0000000E+00 0 0 0 0.9000
hyd0156  6.2101900E-01 0 1 .16071800000 1.00000 0 0 0.0000         0.2 1.0000000E+00 0 0 0 0.9000
hyd0157  6.2101900E-01 0 1 .16071800000 1.00000 0 0  6.7593900E-01 0.2 .39960300000  0 0 0  7.8301400E-02
hyd0158  6.2101900E-01 0 1 .16071800000 1.00000 0 0 0.0000         0.2 1.0000000E+00 0 0 0 0.9000
hyd0159  6.2101900E-01 0 1 .16071800000 1.00000 0 0 0.0000         0.2 1.0000000E+00 0 0 0 0.9000
hyd0160  6.2101900E-01 0 1 .16071800000 1.00000 0 0  6.7593900E-01 0.2 .39960300000  0 0 0  7.8301400E-02
hyd0161  6.2101900E-01 0 1 .16071800000 1.00000 0 0 0.0000         0.2 1.0000000E+00 0 0 0 0.9000
hyd0162  6.2101900E-01 0 1 .16071800000 1.00000 0 0  6.7593900E-01 0.2 .39960300000  0 0 0  7.8301400E-02
hyd0163  6.2101900E-01 0 1 .16071800000 1.00000 0 0  6.7593900E-01 0.2 .39960300000  0 0 0  7.8301400E-02
hyd0164  6.2101900E-01 0 1 .16071800000 1.00000 0 0 0.0000         0.2 1.0000000E+00 0 0 0 0.9000
hyd0165  6.2101900E-01 0 1 .16071800000 1.00000 0 0  6.7593900E-01 0.2 .39960300000  0 0 0  7.8301400E-02
hyd0166  6.2101900E-01 0 1 .16071800000 1.00000 0 0 0.0000         0.2 1.0000000E+00 0 0 0 0.9000
hyd0167  6.2101900E-01 0 1 .16071800000 1.00000 0 0 0.0000         0.2 1.0000000E+00 0 0 0 0.9000
hyd0168  6.2101900E-01 0 1 .16071800000 1.00000 0 0  6.7593900E-01 0.2 .39960300000  0 0 0  7.8301400E-02
hyd0169  6.2101900E-01 0 1 .16071800000 1.00000 0 0 0.0000         0.2 1.0000000E+00 0 0 0 0.9000
hyd0170  6.2101900E-01 0 1 .16071800000 1.00000 0 0 0.0000         0.2 1.0000000E+00 0 0 0 0.9000
hyd0171  6.2101900E-01 0 1 .16071800000 1.00000 0 0  6.7593900E-01 0.2 .39960300000  0 0 0  7.8301400E-02
hyd0172  6.2101900E-01 0 1 .16071800000 1.00000 0 0 0.0000         0.2 1.0000000E+00 0 0 0 0.9000
hyd0173  6.2101900E-01 0 1 .16071800000 1.00000 0 0  6.7593900E-01 0.2 .39960300000  0 0 0  7.8301400E-02
hyd0174  6.2101900E-01 0 1 .16071800000 1.00000 0 0 0.0000         0.2 1.0000000E+00 0 0 0 0.9000
hyd0175  6.2101900E-01 0 1 .16071800000 1.00000 0 0 0.0000         0.2 1.0000000E+00 0 0 0 0.9000
hyd0176  6.2101900E-01 0 1 .16071800000 1.00000 0 0 0.0000         0.2 1.0000000E+00 0 0 0 0.9000
hyd0177  6.2101900E-01 0 1 .16071800000 1.00000 0 0 0.0000         0.2 1.0000000E+00 0 0 0 0.9000
hyd0178  6.2101900E-01 0 1 .16071800000 1.00000 0 0  6.7593900E-01 0.2 .39960300000  0 0 0  7.8301400E-02
hyd0179  6.2101900E-01 0 1 .16071800000 1.00000 0 0 0.0000         0.2 1.0000000E+00 0 0 0 0.9000
hyd0180  6.2101900E-01 0 1 .16071800000 1.00000 0 0 0.0000         0.2 1.0000000E+00 0 0 0 0.9000
hyd0181  6.2101900E-01 0 1 .16071800000 1.00000 0 0 0.0000         0.2 1.0000000E+00 0 0 0 0.9000
hyd0182  6.2101900E-01 0 1 .16071800000 1.00000 0 0 0.0000         0.2 1.0000000E+00 0 0 0 0.9000
hyd0183  6.2101900E-01 0 1 .16071800000 1.00000 0 0  6.7593900E-01 0.2 .39960300000  0 0 0  7.8301400E-02
hyd0184  6.2101900E-01 0 1 .16071800000 1.00000 0 0 0.0000         0.2 1.0000000E+00 0 0 0 0.9000
hyd0185  6.2101900E-01 0 1 .16071800000 1.00000 0 0 0.0000         0.2 1.0000000E+00 0 0 0 0.9000
hyd0186  6.2101900E-01 0 1 .16071800000 1.00000 0 0  6.7593900E-01 0.2 .39960300000  0 0 0  7.8301400E-02
hyd0187  6.2101900E-01 0 1 .16071800000 1.00000 0 0  6.7593900E-01 0.2 .39960300000  0 0 0  7.8301400E-02
hyd0188  6.2101900E-01 0 1 .16071800000 1.00000 0 0 0.0000         0.2 1.0000000E+00 0 0 0 0.9000
hyd0189  6.2101900E-01 0 1 .16071800000 1.00000 0 0 0.0000         0.2 1.0000000E+00 0 0 0 0.9000
hyd0190  6.2101900E-01 0 1 .16071800000 1.00000 0 0 0.0000         0.2 1.0000000E+00 0 0 0 0.9000
hyd0191  6.2101900E-01 0 1 .16071800000 1.00000 0 0 0.0000         0.2 1.0000000E+00 0 0 0 0.9000
hyd0192  6.2101900E-01 0 1 .16071800000 1.00000 0 0 0.0000         0.2 1.0000000E+00 0 0 0 0.9000
hyd0193  6.2101900E-01 0 1 .16071800000 1.00000 0 0 0.0000         0.2 1.0000000E+00 0 0 0 0.9000
hyd0194  6.2101900E-01 0 1 .16071800000 1.00000 0 0 0.0000         0.2 1.0000000E+00 0 0 0 0.9000
hyd0195  6.2101900E-01 0 1 .16071800000 1.00000 0 0  6.7593900E-01 0.2 .39960300000  0 0 0  7.8301400E-02
hyd0196  6.2101900E-01 0 1 .16071800000 1.00000 0 0  6.7593900E-01 0.2 .39960300000  0 0 0  7.8301400E-02
hyd0197  6.2101900E-01 0 1 .16071800000 1.00000 0 0 0.0000         0.2 1.0000000E+00 0 0 0 0.9000
hyd0198  6.2101900E-01 0 1 .16071800000 1.00000 0 0  6.7593900E-01 0.2 .39960300000  0 0 0  7.8301400E-02
hyd0199  6.2101900E-01 0 1 .16071800000 1.00000 0 0 0.0000         0.2 1.0000000E+00 0 0 0 0.9000
hyd0200  6.2101900E-01 0 1 .16071800000 1.00000 0 0 0.0000         0.2 1.0000000E+00 0 0 0 0.9000
hyd0201  6.2101900E-01 0 1 .16071800000 1.00000 0 0 0.0000         0.2 1.0000000E+00 0 0 0 0.9000
hyd0202  6.2101900E-01 0 1 .16071800000 1.00000 0 0 0.0000         0.2 1.0000000E+00 0 0 0 0.9000
hyd0203  6.2101900E-01 0 1 .16071800000 1.00000 0 0  6.7593900E-01 0.2 .39960300000  0 0 0  7.8301400E-02
hyd0204  6.2101900E-01 0 1 .16071800000 1.00000 0 0 0.0000         0.2 1.0000000E+00 0 0 0 0.9000
hyd0205  6.2101900E-01 0 1 .16071800000 1.00000 0 0  6.7593900E-01 0.2 .39960300000  0 0 0  7.8301400E-02
hyd0206  6.2101900E-01 0 1 .16071800000 1.00000 0 0 0.0000         0.2 1.0000000E+00 0 0 0 0.9000
hyd0207  6.2101900E-01 0 1 .16071800000 1.00000 0 0  6.7593900E-01 0.2 .39960300000  0 0 0  7.8301400E-02
hyd0208  6.2101900E-01 0 1 .16071800000 1.00000 0 0 0.0000         0.2 1.0000000E+00 0 0 0 0.9000
hyd0209  6.2101900E-01 0 1 .16071800000 1.00000 0 0 0.0000         0.2 1.0000000E+00 0 0 0 0.9000
hyd0210  6.2101900E-01 0 1 .16071800000 1.00000 0 0 0.0000         0.2 1.0000000E+00 0 0 0 0.9000
hyd0211  6.2101900E-01 0 1 .16071800000 1.00000 0 0 0.0000         0.2 1.0000000E+00 0 0 0 0.9000
hyd0212  6.2101900E-01 0 1 .16071800000 1.00000 0 0  6.7593900E-01 0.2 .39960300000  0 0 0  7.8301400E-02
hyd0213  6.2101900E-01 0 1 .16071800000 1.00000 0 0 0.0000         0.2 1.0000000E+00 0 0 0 0.9000
hyd0214  6.2101900E-01 0 1 .16071800000 1.00000 0 0  6.7593900E-01 0.2 .39960300000  0 0 0  7.8301400E-02
hyd0215  6.2101900E-01 0 1 .16071800000 1.00000 0 0  6.7593900E-01 0.2 .39960300000  0 0 0  7.8301400E-02
hyd0216  6.2101900E-01 0 1 .16071800000 1.00000 0 0 0.0000         0.2 1.0000000E+00 0 0 0 0.9000
hyd0217  6.2101900E-01 0 1 .16071800000 1.00000 0 0 0.0000         0.2 1.0000000E+00 0 0 0 0.9000
hyd0218  6.2101900E-01 0 1 .16071800000 1.00000 0 0  6.7593900E-01 0.2 .39960300000  0 0 0  7.8301400E-02
hyd0219  6.2101900E-01 0 1 .16071800000 1.00000 0 0 0.0000         0.2 1.0000000E+00 0 0 0 0.9000
hyd0220  6.2101900E-01 0 1 .16071800000 1.00000 0 0 0.0000         0.2 1.0000000E+00 0 0 0 0.9000
hyd0221  6.2101900E-01 0 1 .16071800000 1.00000 0 0  6.7593900E-01 0.2 .39960300000  0 0 0  7.8301400E-02
hyd0222  6.2101900E-01 0 1 .16071800000 1.00000 0 0 0.0000         0.2 1.0000000E+00 0 0 0 0.9000
hyd0223  6.2101900E-01 0 1 .16071800000 1.00000 0 0 0.0000         0.2 1.0000000E+00 0 0 0 0.9000
hyd0224  6.2101900E-01 0 1 .16071800000 1.00000 0 0 0.0000         0.2 1.0000000E+00 0 0 0 0.9000
hyd0225  6.2101900E-01 0 1 .16071800000 1.00000 0 0  6.7593900E-01 0.2 .39960300000  0 0 0  7.8301400E-02
hyd0226  6.2101900E-01 0 1 .16071800000 1.00000 0 0 0.0000         0.2 1.0000000E+00 0 0 0 0.9000
hyd0227  6.2101900E-01 0 1 .16071800000 1.00000 0 0  6.7593900E-01 0.2 .39960300000  0 0 0  7.8301400E-02
hyd0228  6.2101900E-01 0 1 .16071800000 1.00000 0 0  6.7593900E-01 0.2 .39960300000  0 0 0  7.8301400E-02
hyd0229  6.2101900E-01 0 1 .16071800000 1.00000 0 0 0.0000         0.2 1.0000000E+00 0 0 0 0.9000
hyd0230  6.2101900E-01 0 1 .16071800000 1.00000 0 0 0.0000         0.2 1.0000000E+00 0 0 0 0.9000
hyd0231  6.2101900E-01 0 1 .16071800000 1.00000 0 0  6.7593900E-01 0.2 .39960300000  0 0 0  7.8301400E-02
hyd0232  6.2101900E-01 0 1 .16071800000 1.00000 0 0 0.0000         0.2 1.0000000E+00 0 0 0 0.9000
hyd0233  6.2101900E-01 0 1 .16071800000 1.00000 0 0 0.0000         0.2 1.0000000E+00 0 0 0 0.9000
hyd0234  6.2101900E-01 0 1 .16071800000 1.00000 0 0  6.7593900E-01 0.2 .39960300000  0 0 0  7.8301400E-02
hyd0235  6.2101900E-01 0 1 .16071800000 1.00000 0 0 0.0000         0.2 1.0000000E+00 0 0 0 0.9000
hyd0236  6.2101900E-01 0 1 .16071800000 1.00000 0 0  6.7593900E-01 0.2 .39960300000  0 0 0  7.8301400E-02
hyd0237  6.2101900E-01 0 1 .16071800000 1.00000 0 0 0.0000         0.2 1.0000000E+00 0 0 0 0.9000
hyd0238  6.2101900E-01 0 1 .16071800000 1.00000 0 0 0.0000         0.2 1.0000000E+00 0 0 0 0.9000
hyd0239  6.2101900E-01 0 1 .16071800000 1.00000 0 0 0.0000         0.2 1.0000000E+00 0 0 0 0.9000
hyd0240  6.2101900E-01 0 1 .16071800000 1.00000 0 0  6.7593900E-01 0.2 .39960300000  0 0 0  7.8301400E-02
hyd0241  6.2101900E-01 0 1 .16071800000 1.00000 0 0 0.0000         0.2 1.0000000E+00 0 0 0 0.9000
hyd0242  6.2101900E-01 0 1 .16071800000 1.00000 0 0 0.0000         0.2 1.0000000E+00 0 0 0 0.9000
hyd0243  6.2101900E-01 0 1 .16071800000 1.00000 0 0  6.7593900E-01 0.2 .39960300000  0 0 0  7.8301400E-02
hyd0244  6.2101900E-01 0 1 .16071800000 1.00000 0 0  6.7593900E-01 0.2 .39960300000  0 0 0  7.8301400E-02
hyd0245  6.2101900E-01 0 1 .16071800000 1.00000 0 0 0.0000         0.2 1.0000000E+00 0 0 0 0.9000
hyd0246  6.2101900E-01 0 1 .16071800000 1.00000 0 0 0.0000         0.2 1.0000000E+00 0 0 0 0.9000
hyd0247  6.2101900E-01 0 1 .16071800000 1.00000 0 0  6.7593900E-01 0.2 .39960300000  0 0 0  7.8301400E-02
hyd0248  6.2101900E-01 0 1 .16071800000 1.00000 0 0  6.7593900E-01 0.2 .39960300000  0 0 0  7.8301400E-02
hyd0249  6.2101900E-01 0 1 .16071800000 1.00000 0 0 0.0000         0.2 1.0000000E+00 0 0 0 0.9000
hyd0250  6.2101900E-01 0 1 .16071800000 1.00000 0 0 0.0000         0.2 1.0000000E+00 0 0 0 0.9000
hyd0251  6.2101900E-01 0 1 .16071800000 1.00000 0 0  6.7593900E-01 0.2 .39960300000  0 0 0  7.8301400E-02
hyd0252  6.2101900E-01 0 1 .16071800000 1.00000 0 0 0.0000         0.2 1.0000000E+00 0 0 0 0.9000
hyd0253  6.2101900E-01 0 1 .16071800000 1.00000 0 0 0.0000         0.2 1.0000000E+00 0 0 0 0.9000
hyd0254  6.2101900E-01 0 1 .16071800000 1.00000 0 0  6.7593900E-01 0.2 .39960300000  0 0 0  7.8301400E-02
hyd0255  6.2101900E-01 0 1 .16071800000 1.00000 0 0  6.7593900E-01 0.2 .39960300000  0 0 0  7.8301400E-02
hyd0256  6.2101900E-01 0 1 .16071800000 1.00000 0 0 0.0000         0.2 1.0000000E+00 0 0 0 0.9000
hyd0257  6.2101900E-01 0 1 .16071800000 1.00000 0 0 0.0000         0.2 1.0000000E+00 0 0 0 0.9000
hyd0258  6.2101900E-01 0 1 .16071800000 1.00000 0 0 0.0000         0.2 1.0000000E+00 0 0 0 0.9000
hyd0259  6.2101900E-01 0 1 .16071800000 1.00000 0 0 0.0000         0.2 1.0000000E+00 0 0 0 0.9000
hyd0260  6.2101900E-01 0 1 .16071800000 1.00000 0 0  6.7593900E-01 0.2 .39960300000  0 0 0  7.8301400E-02
hyd0261  6.2101900E-01 0 1 .16071800000 1.00000 0 0 0.0000         0.2 1.0000000E+00 0 0 0 0.9000
hyd0262  6.2101900E-01 0 1 .16071800000 1.00000 0 0  6.7593900E-01 0.2 .39960300000  0 0 0  7.8301400E-02
hyd0263  6.2101900E-01 0 1 .16071800000 1.00000 0 0 0.0000         0.2 1.0000000E+00 0 0 0 0.9000
hyd0264  6.2101900E-01 0 1 .16071800000 1.00000 0 0 0.0000         0.2 1.0000000E+00 0 0 0 0.9000
hyd0265  6.2101900E-01 0 1 .16071800000 1.00000 0 0  6.7593900E-01 0.2 .39960300000  0 0 0  7.8301400E-02
hyd0266  6.2101900E-01 0 1 .16071800000 1.00000 0 0 0.0000         0.2 1.0000000E+00 0 0 0 0.9000
hyd0267  6.2101900E-01 0 1 .16071800000 1.00000 0 0  6.7593900E-01 0.2 .39960300000  0 0 0  7.8301400E-02
hyd0268  6.2101900E-01 0 1 .16071800000 1.00000 0 0 0.0000         0.2 1.0000000E+00 0 0 0 0.9000
hyd0269  6.2101900E-01 0 1 .16071800000 1.00000 0 0  6.7593900E-01 0.2 .39960300000  0 0 0  7.8301400E-02
hyd0270  6.2101900E-01 0 1 .16071800000 1.00000 0 0  6.7593900E-01 0.2 .39960300000  0 0 0  7.8301400E-02
hyd0271  6.2101900E-01 0 1 .16071800000 1.00000 0 0 0.0000         0.2 1.0000000E+00 0 0 0 0.9000
hyd0272  6.2101900E-01 0 1 .16071800000 1.00000 0 0 0.0000         0.2 1.0000000E+00 0 0 0 0.9000
hyd0273  6.2101900E-01 0 1 .16071800000 1.00000 0 0  6.7593900E-01 0.2 .39960300000  0 0 0  7.8301400E-02
hyd0274  6.2101900E-01 0 1 .16071800000 1.00000 0 0  6.7593900E-01 0.2 .39960300000  0 0 0  7.8301400E-02
hyd0275  6.2101900E-01 0 1 .16071800000 1.00000 0 0 0.0000         0.2 1.0000000E+00 0 0 0 0.9000
hyd0276  6.2101900E-01 0 1 .16071800000 1.00000 0 0  6.7593900E-01 0.2 .39960300000  0 0 0  7.8301400E-02
hyd0277  6.2101900E-01 0 1 .16071800000 1.00000 0 0 0.0000         0.2 1.0000000E+00 0 0 0 0.9000
hyd0278  6.2101900E-01 0 1 .16071800000 1.00000 0 0 0.0000         0.2 1.0000000E+00 0 0 0 0.9000
hyd0279  6.2101900E-01 0 1 .16071800000 1.00000 0 0 0.0000         0.2 1.0000000E+00 0 0 0 0.9000
hyd0280  6.2101900E-01 0 1 .16071800000 1.00000 0 0 0.0000         0.2 1.0000000E+00 0 0 0 0.9000
hyd0281  6.2101900E-01 0 1 .16071800000 1.00000 0 0 0.9500         0.2 .39960300000  0 0 0 0.0100
hyd0282  6.2101900E-01 0 1 .16071800000 1.00000 0 0 0.0000         0.2 1.0000000E+00 0 0 0 0.9000
hyd0283  6.2101900E-01 0 1 .16071800000 1.00000 0 0  6.7593900E-01 0.2 .39960300000  0 0 0  7.8301400E-02
hyd0284  6.2101900E-01 0 1 .16071800000 1.00000 0 0 0.9500         0.2 .39960300000  0 0 0 0.0100
hyd0285  6.2101900E-01 0 1 .16071800000 1.00000 0 0 0.0000         0.2 1.0000000E+00 0 0 0 0.9000
hyd0286  6.2101900E-01 0 1 .16071800000 1.00000 0 0 0.0000         0.2 1.0000000E+00 0 0 0 0.9000
hyd0287  6.2101900E-01 0 1 .16071800000 1.00000 0 0  6.7593900E-01 0.2 .39960300000  0 0 0  7.8301400E-02
hyd0288  6.2101900E-01 0 1 .16071800000 1.00000 0 0 0.0000         0.2 1.0000000E+00 0 0 0 0.9000
hyd0289  6.2101900E-01 0 1 .16071800000 1.00000 0 0  6.7593900E-01 0.2 .39960300000  0 0 0  7.8301400E-02
hyd0290  6.2101900E-01 0 1 .16071800000 1.00000 0 0 0.0000         0.2 1.0000000E+00 0 0 0 0.9000
hyd0291  6.2101900E-01 0 1 .16071800000 1.00000 0 0 0.0000         0.2 1.0000000E+00 0 0 0 0.9000
hyd0292  6.2101900E-01 0 1 .16071800000 1.00000 0 0  6.7593900E-01 0.2 .39960300000  0 0 0  7.8301400E-02
hyd0293  6.2101900E-01 0 1 .16071800000 1.00000 0 0 0.0000         0.2 1.0000000E+00 0 0 0 0.9000
hyd0294  6.2101900E-01 0 1 .16071800000 1.00000 0 0  6.7593900E-01 0.2 .39960300000  0 0 0  7.8301400E-02