ls_unit.def: written by SWAT+ editor v2.1.4 on 2022-11-22 14:57 for SWAT+ rev.60.5.4
390
      id              name          area  elem_tot  elements  
       1           rtu0011       1.62479         2      4939     -4940  
       2           rtu0012       5.12434         2      4941     -4947  
       3           rtu0021       0.56243         2      4926     -4929  
       4           rtu0022      27.55892         2      4930     -4938  
       5           rtu0031     266.52791         2      2350     -2369  
       6           rtu0032    5017.66137         2      2370     -2383  
       7           rtu0061       1.56230         2      2337     -2338  
       8           rtu0062      27.43394         2      2339     -2349  
       9           rtu0071      50.68092         2      2300     -2306  
      10           rtu0072    5609.64705         2      2307     -2336  
      11           rtu0081     170.54037         2      2283     -2299  
      12           rtu0082   11372.52422         2      2254     -2282  
      13           rtu0131     853.26427         2      2225     -2237  
      14           rtu0132    7559.26906         2      2238     -2253  
      15           rtu0151     317.27133         2      1873     -1885  
      16           rtu0152    3204.70913         2      1886     -1906  
      17           rtu0161     303.71059         2      1831     -1841  
      18           rtu0162    3811.25542         2      1842     -1872  
      19           rtu0171      27.99637         2      1814     -1825  
      20           rtu0172    1573.60830         2      1826     -1830  
      21           rtu0181      84.55153         2      1778     -1789  
      22           rtu0182    2016.86328         2      1790     -1813  
      23           rtu0191     127.10851         2      1730     -1753  
      24           rtu0192    3027.85708         2      1754     -1777  
      25           rtu0211     261.27859         2      1578     -1594  
      26           rtu0212    4277.81988         2      1595     -1603  
      27           rtu0221     162.66639         2      1534     -1550  
      28           rtu0222    3509.29461         2      1551     -1577  
      29           rtu0231      75.80266         2      4416     -4436  
      30           rtu0232    1322.57837         2      4437     -4446  
      31           rtu0241      82.92674         2      1498     -1521  
      32           rtu0242    1834.07450         2      1522     -1533  
      33           rtu0261       0.31246         2      4405     -4407  
      34           rtu0262      12.12343         2      4408     -4415  
      35           rtu0272    2008.86432         2      4393     -4404  
      36           rtu0281     124.48385         2      1438     -1449  
      37           rtu0282    3269.32575         2      1450     -1473  
      38           rtu0291      88.23855         2      1403     -1411  
      39           rtu0292    2601.91236         2      1412     -1437  
      40           rtu0302    1384.07039         2      4366     -4392  
      41           rtu0311      93.23790         2      1375     -1392  
      42           rtu0312    1342.82575         2      1393     -1402  
      43           rtu0321       7.43653         2      3777     -3782  
      44           rtu0322    1989.49183         2      3783     -3796  
      45           rtu0331     335.20650         2      3765     -3776  
      46           rtu0332    7281.61759         2      3757     -3764  
      47           rtu0341     100.86191         2      1337     -1345  
      48           rtu0342    2814.38479         2      1346     -1374  
      49           rtu0351     105.67379         2       739      -750  
      50           rtu0352    1546.11187         2       751      -755  
      51           rtu0371      99.42460         2      2534     -2557  
      52           rtu0372    2697.33747         2      2558     -2569  
      53           rtu0381     188.03810         2       712      -726  
      54           rtu0382    4082.72020         2       727      -738  
      55           rtu0401     105.79877         2      3738     -3745  
      56           rtu0402    3710.58099         2      3746     -3756  
      57           rtu0411     105.04887         2      4007     -4012  
      58           rtu0412    1616.10278         2      4013     -4020  
      59           rtu0421     194.59975         2       929      -944  
      60           rtu0422    3217.20751         2       945      -956  
      61           rtu0431     103.42408         2       585      -588  
      62           rtu0432    2140.53473         2       589      -608  
      63           rtu0441     199.03667         2       547      -550  
      64           rtu0442    2643.21950         2       551      -584  
      65           rtu0451     184.91350         2      3998     -4002  
      66           rtu0452    4846.55858         2      4003     -4006  
      67           rtu0461     201.41136         2      3962     -3971  
      68           rtu0462    2388.87750         2      3972     -3997  
      69           rtu0471     641.60424         2       512      -518  
      70           rtu0472    7118.07631         2       519      -546  
      71           rtu0481     108.54841         2      3939     -3947  
      72           rtu0482    2005.98969         2      3948     -3961  
      73           rtu0491     307.21013         2      2510     -2521  
      74           rtu0492    8118.44649         2      2522     -2533  
      75           rtu0501     288.77503         2       487      -499  
      76           rtu0502    2345.00820         2       500      -511  
      77           rtu0511     454.94096         2      3501     -3518  
      78           rtu0512    6800.86747         2      3519     -3547  
      79           rtu0521     104.23647         2      3018     -3029  
      80           rtu0522    2066.85679         2      3030     -3047  
      81           rtu0531     197.91182         2       443      -457  
      82           rtu0532    1958.62084         2       458      -486  
      83           rtu0542     598.67231         2      4653     -4656  
      84           rtu0551     168.54063         2      3459     -3474  
      85           rtu0552    1528.67663         2      3475     -3500  
      86           rtu0571     338.58106         2      4332     -4344  
      87           rtu0572    1389.31971         2      4345     -4353  
      88           rtu0581     540.36738         2      3331     -3347  
      89           rtu0582    7150.25963         2      3348     -3355  
      90           rtu0592     829.89231         2      4645     -4652  
      91           rtu0601     349.26718         2       405      -417  
      92           rtu0602    1210.65540         2       418      -442  
      93           rtu0611      12.12343         2      5032     -5034  
      94           rtu0612    3852.68755         2      5026     -5031  
      95           rtu0621     419.82052         2      1193     -1203  
      96           rtu0622    3032.73145         2      1204     -1229  
      97           rtu0631     226.47061         2      1171     -1184  
      98           rtu0632    2468.42968         2      1185     -1192  
      99           rtu0651     319.20858         2      4293     -4313  
     100           rtu0652    3204.20920         2      4314     -4331  
     101           rtu0661      56.43018         2      5010     -5021  
     102           rtu0662    2212.21293         2      5022     -5025  
     103           rtu0671     301.64836         2      2985     -2993  
     104           rtu0672    7246.43465         2      2994     -3017  
     105           rtu0681      70.74082         2      3305     -3310  
     106           rtu0682    3100.28519         2      3311     -3330  
     107           rtu0691      98.67470         2      3574     -3593  
     108           rtu0692    2894.68687         2      3594     -3614  
     109           rtu0711     129.42071         2      3263     -3280  
     110           rtu0712    3315.00732         2      3281     -3304  
     111           rtu0721     170.29040         2      3226     -3237  
     112           rtu0722    3923.99080         2      3238     -3262  
     113           rtu0731     195.84959         2      1150     -1161  
     114           rtu0732    5086.15249         2      1162     -1170  
     115           rtu0741     374.63888         2      4252     -4283  
     116           rtu0742    4359.62176         2      4284     -4292  
     117           rtu0751     148.48073         2      3548     -3559  
     118           rtu0752    2599.03773         2      3560     -3573  
     119           rtu0761     398.32331         1      4999  
     120           rtu0762    3781.50928         2      5000     -5009  
     121           rtu0771      96.61246         2      4890     -4913  
     122           rtu0772    2985.36260         2      4914     -4925  
     123           rtu0781     346.95498         2      3190     -3201  
     124           rtu0782    5299.68728         2      3202     -3225  
     125           rtu0791     329.26977         2      4974     -4983  
     126           rtu0792    5924.79366         2      4984     -4998  
     127           rtu0801     423.88249         2      1131     -1138  
     128           rtu0802    7462.84407         2      1139     -1149  
     129           rtu0811      56.93011         2      4056     -4067  
     130           rtu0812    2373.69197         2      4068     -4079  
     131           rtu0821     170.60286         2      4447     -4458  
     132           rtu0822    1678.59467         2      4459     -4462  
     133           rtu0841     138.98196         2      5449     -5451  
     134           rtu0842    2685.83897         2      5452     -5463  
     135           rtu0851     304.02305         2      5428     -5437  
     136           rtu0852    6020.09379         2      5438     -5448  
     137           rtu0861     135.10747         2      4871     -4880  
     138           rtu0862     590.42338         2      4881     -4889  
     139           rtu0871      32.68326         2       910      -918  
     140           rtu0872     447.31695         2       919      -928  
     141           rtu0881     209.28534         2      4620     -4627  
     142           rtu0882    2202.27672         2      4628     -4632  
     143           rtu0891     160.47918         2      4028     -4039  
     144           rtu0892    4540.59828         2      4040     -4055  
     145           rtu0901     242.78100         2      4850     -4859  
     146           rtu0902    3421.74347         2      4860     -4870  
     147           rtu0921     101.36185         2      2748     -2771  
     148           rtu0922    1223.15378         2      2772     -2778  
     149           rtu0931     185.60092         2      1062     -1096  
     150           rtu0932    4211.39100         2      1097     -1130  
     151           rtu0941     671.10041         2      4607     -4610  
     152           rtu0942    8961.21213         2      4611     -4619  
     153           rtu0951     257.27911         2      2706     -2725  
     154           rtu0952    4857.24469         2      2726     -2747  
     155           rtu0961      58.11746         2       885      -896  
     156           rtu0962    1250.52522         2       897      -909  
     157           rtu0971     603.04674         2      1037     -1045  
     158           rtu0972    7543.33362         2      1046     -1061  
     159           rtu0981     495.68568         2      4832     -4839  
     160           rtu0982    3615.59332         2      4840     -4849  
     161           rtu1001     405.38489         2      4208     -4231  
     162           rtu1002    6725.81471         2      4232     -4251  
     163           rtu1011      55.93024         2       839      -864  
     164           rtu1012     854.32664         2       865      -884  
     165           rtu1021     319.39605         2      2875     -2898  
     166           rtu1022    5055.21900         2      2899     -2922  
     167           rtu1031     373.26406         2      5408     -5410  
     168           rtu1032    2055.17081         2      5411     -5427  
     169           rtu1051     133.10773         2      5251     -5253  
     170           rtu1052    1419.19084         2      5254     -5265  
     171           rtu1061     328.14492         2      4578     -4581  
     172           rtu1062    1747.21077         2      4582     -4606  
     173           rtu1071     391.88665         2      3157     -3165  
     174           rtu1072    9635.06219         2      3166     -3189  
     175           rtu1081     182.47632         2      5234     -5236  
     176           rtu1082    1513.86605         2      5237     -5250  
     177           rtu1091     162.16646         2      1003     -1019  
     178           rtu1092    2710.52326         2      1020     -1036  
     179           rtu1111     115.98495         2      3893     -3907  
     180           rtu1112    2427.49749         2      3908     -3922  
     181           rtu1121      99.29961         2      4771     -4776  
     182           rtu1122     976.99822         2      4777     -4781  
     183           rtu1131     252.77970         2      5364     -5378  
     184           rtu1132    2044.10974         2      5379     -5407  
     185           rtu1151     343.70540         2      3727     -3730  
     186           rtu1152    2573.47855         2      3731     -3737  
     187           rtu1161     120.73433         2       314      -334  
     188           rtu1162    2342.25855         2       335      -344  
     189           rtu1171     208.22298         2      1987     -2003  
     190           rtu1172    4507.91502         2      2004     -2032  
     191           rtu1181     244.59326         2       161      -169  
     192           rtu1182    2716.02255         2       170      -193  
     193           rtu1191      72.11564         2       994      -998  
     194           rtu1192    2646.40658         2       999     -1002  
     195           rtu1201     483.12481         2      5344     -5351  
     196           rtu1202    4096.28094         2      5352     -5363  
     197           rtu1221     643.29152         2      4562     -4563  
     198           rtu1222    4298.56719         2      4564     -4577  
     199           rtu1231     394.19885         2       983      -986  
     200           rtu1232    7333.36087         2       987      -993  
     201           rtu1241      65.42901         2       133      -139  
     202           rtu1242    1627.78877         2       140      -160  
     203           rtu1271     439.38048         2      5223     -5225  
     204           rtu1272    3468.61239         2      5226     -5233  
     205           rtu1281     571.92578         2      4761     -4762  
     206           rtu1282    4244.76167         2      4763     -4770  
     207           rtu1291     344.20533         2      4555     -4556  
     208           rtu1292    2851.13002         2      4557     -4561  
     209           rtu1311     395.38619         2      2192     -2195  
     210           rtu1312    8123.88329         2      2196     -2224  
     211           rtu1331     248.78022         2      4182     -4205  
     212           rtu1332    5838.86731         2      4206     -4207  
     213           rtu1341     617.54486         2      2475     -2483  
     214           rtu1342    8467.77616         2      2484     -2509  
     215           rtu1351      66.55386         2      3856     -3878  
     216           rtu1352    1335.26423         2      3879     -3892  
     217           rtu1361     118.67210         2       276      -288  
     218           rtu1362    1756.64705         2       289      -313  
     219           rtu1391     192.03758         2      2659     -2672  
     220           rtu1392    2768.07829         2      2673     -2705  
     221           rtu1411     171.41526         2      5201     -5208  
     222           rtu1412    1648.59857         2      5209     -5222  
     223           rtu1421     559.30242         2      3119     -3126  
     224           rtu1422    5409.61051         2      3127     -3156  
     225           rtu1431     371.51429         2      3720     -3721  
     226           rtu1432    4771.94326         2      3722     -3726  
     227           rtu1441     148.23076         2       387      -392  
     228           rtu1442    2264.33116         2       393      -404  
     229           rtu1471     293.39943         2      4729     -4731  
     230           rtu1472    2565.35460         2      4732     -4760  
     231           rtu1481     671.16291         2      3090     -3106  
     232           rtu1482   11000.13505         2      3107     -3118  
     233           rtu1521     143.10643         2        91       -98  
     234           rtu1522    2289.51540         2        99      -132  
     235           rtu1531     272.52713         2      2154     -2161  
     236           rtu1532    5855.17769         2      2162     -2191  
     237           rtu1551     827.76758         2      3420     -3430  
     238           rtu1552    4004.98029         2      3431     -3458  
     239           rtu1561     170.97781         2      1682     -1705  
     240           rtu1562    2038.04803         2      1706     -1729  
     241           rtu1571     180.16412         2      5165     -5166  
     242           rtu1572    3695.89539         2      5167     -5200  
     243           rtu1581     196.34952         2        77       -84  
     244           rtu1582    2805.44845         2        85       -90  
     245           rtu1591     216.34693         2      4712     -4719  
     246           rtu1592    1075.42295         2      4720     -4728  
     247           rtu1621     355.45387         2      5314     -5317  
     248           rtu1622    4537.22372         2      5318     -5343  
     249           rtu1661     701.84642         1      5279  
     250           rtu1662    7903.53688         2      5280     -5313  
     251           rtu1681     285.15050         2      5266     -5268  
     252           rtu1682    3810.00559         2      5269     -5278  
     253           rtu1691     808.14513         2      4354     -4361  
     254           rtu1692   11239.85394         2      4362     -4365  
     255           rtu1701     190.22532         2      4963     -4965  
     256           rtu1702    2937.55630         2      4966     -4973  
     257           rtu1711     183.22622         2      5123     -5129  
     258           rtu1712    2364.63065         2      5130     -5164  
     259           rtu1731      51.05587         2      5072     -5087  
     260           rtu1732    1682.65665         2      5088     -5122  
     261           rtu1751     230.84504         2      5058     -5060  
     262           rtu1752    2650.71852         2      5061     -5071  
     263           rtu1761      93.55036         2      5041     -5055  
     264           rtu1762    2128.28632         2      5056     -5057  
     265           rtu1771     145.35614         1      5035  
     266           rtu1772    3155.84048         2      5036     -5040  
     267           rtu1781     204.34848         2      4948     -4951  
     268           rtu1782    2954.80406         2      4952     -4962  
     269           rtu1801     691.28529         2      4529     -4530  
     270           rtu1802    6296.99536         2      4531     -4554  
     271           rtu1821     182.47632         2      4696     -4701  
     272           rtu1822    3781.69676         2      4702     -4711  
     273           rtu1841      70.17839         2      4685     -4693  
     274           rtu1842    2000.30293         2      4694     -4695  
     275           rtu1851     102.67418         2      4176     -4178  
     276           rtu1852    3875.24712         2      4179     -4181  
     277           rtu1861     446.81702         2      4021     -4024  
     278           rtu1862    9574.57004         2      4025     -4027  
     279           rtu1871     110.42317         2      4782     -4815  
     280           rtu1872    2461.05564         2      4816     -4831  
     281           rtu1881      90.92570         2      4130     -4151  
     282           rtu1882    2368.56764         2      4152     -4175  
     283           rtu1891     318.70864         2      4493     -4500  
     284           rtu1892    5049.09479         2      4501     -4528  
     285           rtu1901      42.18203         2      4673     -4679  
     286           rtu1902    1681.53179         2      4680     -4684  
     287           rtu1911      34.18306         2      4657     -4661  
     288           rtu1912    1500.24282         2      4662     -4672  
     289           rtu1921     203.34861         2      4471     -4478  
     290           rtu1922    1787.83050         2      4479     -4492  
     291           rtu1941      89.05094         2      4633     -4636  
     292           rtu1942    1719.65185         2      4637     -4644  
     293           rtu1951      93.73784         2      4463     -4468  
     294           rtu1952    2100.10248         2      4469     -4470  
     295           rtu1971     280.77606         2      3708     -3709  
     296           rtu1972    4013.35420         2      3710     -3719  
     297           rtu1991      80.05211         2      2135     -2136  
     298           rtu1992    1459.93555         2      2137     -2153  
     299           rtu2011      18.56009         2      4094     -4105  
     300           rtu2012    2530.79659         2      4106     -4129  
     301           rtu2021     388.32461         2      4080     -4083  
     302           rtu2022    3450.86469         2      4084     -4093  
     303           rtu2031     119.23453         2      3829     -3843  
     304           rtu2032    3078.53801         2      3844     -3855  
     305           rtu2041     227.47048         2      3923     -3926  
     306           rtu2042    1482.80758         2      3927     -3938  
     307           rtu2051      38.30753         2      3815     -3825  
     308           rtu2052    3686.77158         2      3826     -3828  
     309           rtu2101     162.35393         2      3797     -3799  
     310           rtu2102    7324.04958         2      3800     -3814  
     311           rtu2111     134.91999         2      3684     -3685  
     312           rtu2112    2931.24462         2      3686     -3707  
     313           rtu2141      84.80150         2      2111     -2118  
     314           rtu2142    3091.66130         2      2119     -2134  
     315           rtu2181     121.04679         2      3655     -3656  
     316           rtu2182    2251.77029         2      3657     -3683  
     317           rtu2191     248.96769         2       974      -975  
     318           rtu2192    3503.10791         2       976      -982  
     319           rtu2211     356.51624         2      2842     -2858  
     320           rtu2212    9286.16996         2      2859     -2874  
     321           rtu2271     120.48437         2      3615     -3624  
     322           rtu2272    2694.27537         2      3625     -3654  
     323           rtu2291     198.66172         2       957      -960  
     324           rtu2292    4081.97029         2       961      -973  
     325           rtu2321      23.62193         2      3384     -3386  
     326           rtu2322    1482.74509         2      3387     -3419  
     327           rtu2331     478.06296         2      2070     -2086  
     328           rtu2332   10308.59978         2      2087     -2110  
     329           rtu2351     110.23570         2      3356     -3359  
     330           rtu2352    2392.06459         2      3360     -3383  
     331           rtu2381      32.37080         2      2033     -2038  
     332           rtu2382    2530.10918         2      2039     -2069  
     333           rtu2391     127.23349         2      3048     -3069  
     334           rtu2392    3945.30053         2      3070     -3089  
     335           rtu2401      86.42628         2      2923     -2954  
     336           rtu2402    2936.93138         2      2955     -2984  
     337           rtu2431     324.58288         2      2779     -2807  
     338           rtu2432    5274.94049         2      2808     -2841  
     339           rtu2441      46.61895         2      2624     -2630  
     340           rtu2442    3327.31822         2      2631     -2658  
     341           rtu2451      57.11759         2      2579     -2599  
     342           rtu2452    1800.57884         2      2600     -2623  
     343           rtu2461     112.73537         2      2417     -2444  
     344           rtu2462    4316.43987         2      2445     -2474  
     345           rtu2471     169.29053         2      2570     -2577  
     346           rtu2472    2774.88991         1      2578  
     347           rtu2481      25.37171         2      1632     -1654  
     348           rtu2482    1545.42445         2      1655     -1681  
     349           rtu2501     740.46641         2      1311     -1320  
     350           rtu2502    4645.83462         2      1321     -1336  
     351           rtu2521     345.33019         2      1945     -1951  
     352           rtu2522    7241.12284         2      1952     -1986  
     353           rtu2571      19.87242         2      2384     -2387  
     354           rtu2572    1875.63160         2      2388     -2416  
     355           rtu2591     206.97314         2      1907     -1914  
     356           rtu2592    3342.31628         2      1915     -1944  
     357           rtu2601     157.29209         2      1474     -1489  
     358           rtu2602    4663.83229         2      1490     -1497  
     359           rtu2621      67.67872         2      1604     -1607  
     360           rtu2622    1897.75373         2      1608     -1631  
     361           rtu2661     145.10617         2       686      -703  
     362           rtu2662    2242.58399         2       704      -711  
     363           rtu2701      17.12278         2      1269     -1283  
     364           rtu2702    1591.29350         2      1284     -1310  
     365           rtu2741      10.18618         2      1230     -1238  
     366           rtu2742    1549.29895         2      1239     -1268  
     367           rtu2751     226.28314         2       371      -376  
     368           rtu2752    2054.10844         2       377      -386  
     369           rtu2771      31.93336         2       805      -816  
     370           rtu2772    2034.86094         2       817      -838  
     371           rtu2821      43.30688         2       756      -776  
     372           rtu2822    2917.99634         2       777      -804  
     373           rtu2831      35.93284         2       645      -656  
     374           rtu2832    2556.10580         2       657      -685  
     375           rtu2841      67.74121         2       345      -356  
     376           rtu2842    1819.63887         2       357      -370  
     377           rtu2851      48.49371         2        48       -59  
     378           rtu2852    1650.34834         2        60       -76  
     379           rtu2861     196.41201         2       228      -251  
     380           rtu2862    5373.92764         2       252      -275  
     381           rtu2871     132.17035         2       609      -620  
     382           rtu2872    6524.15338         2       621      -644  
     383           rtu2911      53.43057         2       207      -212  
     384           rtu2912    2688.46363         2       213      -227  
     385           rtu2921     133.48268         2       194      -200  
     386           rtu2922    3275.38746         2       201      -206  
     387           rtu2931       9.24880         2        32       -36  
     388           rtu2932    1593.10577         2        37       -47  
     389           rtu2941      15.87294         2         1       -14  
     390           rtu2942    1671.22063         2        15       -31  
