ls_unit.ele: written by SWAT+ editor v2.1.4 on 2022-11-22 14:57 for SWAT+ rev.60.5.4
      id  name                   obj_typ  obj_typ_no      bsn_frac      sub_frac      reg_frac  
       1  hru0001                    hru           1     4.0933E-6       0.18744       0.00000  
       2  hru0002                    hru           2     2.1831E-6       0.09997       0.00000  
       3  hru0003                    hru           3     4.5397E-6       0.20787       0.00000  
       4  hru0004                    hru           4     2.8760E-6       0.13169       0.00000  
       5  hru0005                    hru           5     4.0539E-6       0.18563       0.00000  
       6  hru0006                    hru           6     3.6111E-7       0.01654       0.00000  
       7  hru0007                    hru           7     2.0635E-7       0.00945       0.00000  
       8  hru0008                    hru           8     3.9550E-7       0.01811       0.00000  
       9  hru0009                    hru           9     9.0278E-7       0.04134       0.00000  
      10  hru0010                    hru          10     5.1587E-7       0.02362       0.00000  
      11  hru0011                    hru          11     9.8876E-7       0.04528       0.00000  
      12  hru0012                    hru          12     2.7083E-7       0.01240       0.00000  
      13  hru0013                    hru          13     1.5476E-7       0.00709       0.00000  
      14  hru0014                    hru          14     2.9663E-7       0.01358       0.00000  
      15  hru0015                    hru          15     1.2999E-4       0.05653       0.00000  
      16  hru0016                    hru          16     2.8284E-4       0.12301       0.00000  
      17  hru0017                    hru          17     2.0645E-5       0.00898       0.00000  
      18  hru0018                    hru          18     3.1890E-5       0.01387       0.00000  
      19  hru0019                    hru          19     5.4793E-6       0.00238       0.00000  
      20  hru0020                    hru          20     1.2915E-4       0.05617       0.00000  
      21  hru0021                    hru          21     5.6526E-4       0.24583       0.00000  
      22  hru0022                    hru          22     2.2897E-4       0.09958       0.00000  
      23  hru0023                    hru          23     1.6130E-4       0.07015       0.00000  
      24  hru0024                    hru          24     2.4143E-5       0.01050       0.00000  
      25  hru0025                    hru          25     2.7527E-5       0.01197       0.00000  
      26  hru0026                    hru          26     4.0325E-4       0.17538       0.00000  
      27  hru0027                    hru          27     6.0358E-5       0.02625       0.00000  
      28  hru0028                    hru          28     6.8818E-5       0.02993       0.00000  
      29  hru0029                    hru          29     1.2097E-4       0.05261       0.00000  
      30  hru0030                    hru          30     1.8108E-5       0.00788       0.00000  
      31  hru0031                    hru          31     2.0645E-5       0.00898       0.00000  
      32  hru0032                    hru          32     1.6024E-6       0.12593       0.00000  
      33  hru0033                    hru          33     2.8278E-7       0.02222       0.00000  
      34  hru0034                    hru          34     5.1842E-6       0.40741       0.00000  
      35  hru0035                    hru          35     3.9589E-6       0.31111       0.00000  
      36  hru0036                    hru          36     1.6967E-6       0.13333       0.00000  
      37  hru0037                    hru          37     1.9662E-4       0.08971       0.00000  
      38  hru0038                    hru          38     4.4705E-4       0.20396       0.00000  
      39  hru0039                    hru          39     1.3200E-4       0.06022       0.00000  
      40  hru0040                    hru          40     2.3394E-4       0.10673       0.00000  
      41  hru0041                    hru          41     1.7565E-4       0.08014       0.00000  
      42  hru0042                    hru          42     1.3590E-4       0.06200       0.00000  
      43  hru0043                    hru          43     1.0094E-4       0.04605       0.00000  
      44  hru0044                    hru          44     3.3976E-4       0.15501       0.00000  
      45  hru0045                    hru          45     2.5236E-4       0.11514       0.00000  
      46  hru0046                    hru          46     1.0193E-4       0.04650       0.00000  
      47  hru0047                    hru          47     7.5708E-5       0.03454       0.00000  
      48  hru0048                    hru          48     2.2403E-5       0.33578       0.00000  
      49  hru0049                    hru          49     8.3553E-6       0.12523       0.00000  
      50  hru0050                    hru          50     4.7254E-6       0.07082       0.00000  
      51  hru0051                    hru          51     1.3898E-6       0.02083       0.00000  
      52  hru0052                    hru          52     3.5596E-6       0.05335       0.00000  
      53  hru0053                    hru          53     5.2025E-6       0.07798       0.00000  
      54  hru0054                    hru          54     4.1072E-6       0.06156       0.00000  
      55  hru0055                    hru          55     3.6509E-6       0.05472       0.00000  
      56  hru0056                    hru          56     3.3771E-6       0.05062       0.00000  
      57  hru0057                    hru          57     2.2818E-6       0.03420       0.00000  
      58  hru0058                    hru          58     1.9167E-6       0.02873       0.00000  
      59  hru0059                    hru          59     5.7501E-6       0.08618       0.00000  
      60  hru0060                    hru          60     2.2738E-4       0.10014       0.00000  
      61  hru0061                    hru          61     1.1484E-4       0.05058       0.00000  
      62  hru0062                    hru          62     1.0214E-4       0.04498       0.00000  
      63  hru0063                    hru          63     4.0815E-4       0.17975       0.00000  
      64  hru0064                    hru          64     2.8330E-4       0.12477       0.00000  
      65  hru0065                    hru          65     2.6560E-4       0.11697       0.00000  
      66  hru0066                    hru          66     6.9725E-5       0.03071       0.00000  
      67  hru0067                    hru          67     2.6309E-5       0.01159       0.00000  
      68  hru0068                    hru          68     1.4305E-5       0.00630       0.00000  
      69  hru0069                    hru          69     1.5612E-4       0.06876       0.00000  
      70  hru0070                    hru          70     5.5957E-5       0.02464       0.00000  
      71  hru0071                    hru          71     5.4119E-5       0.02383       0.00000  
      72  hru0072                    hru          72     7.0725E-5       0.03115       0.00000  
      73  hru0073                    hru          73     1.3295E-4       0.05855       0.00000  
      74  hru0074                    hru          74     1.3705E-4       0.06036       0.00000  
      75  hru0075                    hru          75     6.4623E-5       0.02846       0.00000  
      76  hru0076                    hru          76     8.7331E-5       0.03846       0.00000  
      77  hru0077                    hru          77     1.8284E-5       0.06768       0.00000  
      78  hru0078                    hru          78     1.0750E-5       0.03979       0.00000  
      79  hru0079                    hru          79     1.3462E-5       0.04983       0.00000  
      80  hru0080                    hru          80     1.5572E-5       0.05764       0.00000  
      81  hru0081                    hru          81     2.1700E-5       0.08033       0.00000  
      82  hru0082                    hru          82     1.2759E-5       0.04723       0.00000  
      83  hru0083                    hru          83     3.6455E-5       0.13494       0.00000  
      84  hru0084                    hru          84     1.4116E-4       0.52255       0.00000  
      85  hru0085                    hru          85     6.4669E-4       0.16754       0.00000  
      86  hru0086                    hru          86     6.7083E-4       0.17380       0.00000  
      87  hru0087                    hru          87     1.5257E-4       0.03953       0.00000  
      88  hru0088                    hru          88     9.6007E-5       0.02487       0.00000  
      89  hru0089                    hru          89     1.3494E-3       0.34961       0.00000  
      90  hru0090                    hru          90     9.4433E-4       0.24465       0.00000  
      91  hru0091                    hru          91     1.4641E-5       0.07436       0.00000  
      92  hru0092                    hru          92     4.1170E-5       0.20910       0.00000  
      93  hru0093                    hru          93     1.6622E-5       0.08442       0.00000  
      94  hru0094                    hru          94     4.2821E-5       0.21749       0.00000  
      95  hru0095                    hru          95     2.5404E-5       0.12902       0.00000  
      96  hru0096                    hru          96     6.8939E-6       0.03501       0.00000  
      97  hru0097                    hru          97     1.9698E-5       0.10005       0.00000  
      98  hru0098                    hru          98     2.9642E-5       0.15055       0.00000  
      99  hru0099                    hru          99     5.0424E-5       0.01601       0.00000  
     100  hru0100                    hru         100     2.5142E-4       0.07982       0.00000  
     101  hru0101                    hru         101     1.6604E-4       0.05271       0.00000  
     102  hru0102                    hru         102     9.3053E-5       0.02954       0.00000  
     103  hru0103                    hru         103     2.0618E-4       0.06545       0.00000  
     104  hru0104                    hru         104     2.0766E-4       0.06592       0.00000  
     105  hru0105                    hru         105     3.2471E-4       0.10308       0.00000  
     106  hru0106                    hru         106     1.0296E-4       0.03268       0.00000  
     107  hru0107                    hru         107     5.2132E-5       0.01655       0.00000  
     108  hru0108                    hru         108     3.0636E-5       0.00973       0.00000  
     109  hru0109                    hru         109     2.7713E-4       0.08798       0.00000  
     110  hru0110                    hru         110     2.1307E-4       0.06764       0.00000  
     111  hru0111                    hru         111     9.9293E-5       0.03152       0.00000  
     112  hru0112                    hru         112     7.7372E-5       0.02456       0.00000  
     113  hru0113                    hru         113     2.9191E-5       0.00927       0.00000  
     114  hru0114                    hru         114     1.8883E-5       0.00599       0.00000  
     115  hru0115                    hru         115     1.4930E-4       0.04740       0.00000  
     116  hru0116                    hru         116     1.6086E-4       0.05107       0.00000  
     117  hru0117                    hru         117     1.1654E-4       0.03700       0.00000  
     118  hru0118                    hru         118     7.2683E-5       0.02307       0.00000  
     119  hru0119                    hru         119     3.1440E-5       0.00998       0.00000  
     120  hru0120                    hru         120     1.7544E-4       0.05570       0.00000  
     121  hru0121                    hru         121     2.0742E-5       0.00658       0.00000  
     122  hru0122                    hru         122     1.7478E-5       0.00555       0.00000  
     123  hru0123                    hru         123     6.5290E-6       0.00207       0.00000  
     124  hru0124                    hru         124     6.0117E-5       0.01908       0.00000  
     125  hru0125                    hru         125     5.4091E-5       0.01717       0.00000  
     126  hru0126                    hru         126     2.8426E-5       0.00902       0.00000  
     127  hru0127                    hru         127     6.2227E-6       0.00198       0.00000  
     128  hru0128                    hru         128     5.2433E-6       0.00166       0.00000  
     129  hru0129                    hru         129     1.9587E-6       0.00062       0.00000  
     130  hru0130                    hru         130     1.8035E-5       0.00573       0.00000  
     131  hru0131                    hru         131     1.6227E-5       0.00515       0.00000  
     132  hru0132                    hru         132     8.5279E-6       0.00271       0.00000  
     133  hru0133                    hru         133     2.4989E-5       0.27760       0.00000  
     134  hru0134                    hru         134     1.7141E-5       0.19041       0.00000  
     135  hru0135                    hru         135     1.6594E-5       0.18434       0.00000  
     136  hru0136                    hru         136     2.0757E-5       0.23058       0.00000  
     137  hru0137                    hru         137     6.0687E-6       0.06742       0.00000  
     138  hru0138                    hru         138     1.6656E-6       0.01850       0.00000  
     139  hru0139                    hru         139     2.8053E-6       0.03116       0.00000  
     140  hru0140                    hru         140     4.0343E-4       0.18014       0.00000  
     141  hru0141                    hru         141     1.6369E-4       0.07309       0.00000  
     142  hru0142                    hru         142     8.5562E-5       0.03820       0.00000  
     143  hru0143                    hru         143     7.5810E-5       0.03385       0.00000  
     144  hru0144                    hru         144     1.7879E-5       0.00798       0.00000  
     145  hru0145                    hru         145     1.3815E-5       0.00617       0.00000  
     146  hru0146                    hru         146     2.6790E-4       0.11962       0.00000  
     147  hru0147                    hru         147     2.2613E-4       0.10097       0.00000  
     148  hru0148                    hru         148     8.2218E-5       0.03671       0.00000  
     149  hru0149                    hru         149     2.3103E-5       0.01032       0.00000  
     150  hru0150                    hru         150     3.2739E-5       0.01462       0.00000  
     151  hru0151                    hru         151     6.2691E-6       0.00280       0.00000  
     152  hru0152                    hru         152     2.8757E-4       0.12840       0.00000  
     153  hru0153                    hru         153     2.2604E-4       0.10093       0.00000  
     154  hru0154                    hru         154     1.8912E-4       0.08444       0.00000  
     155  hru0155                    hru         155     2.8606E-5       0.01277       0.00000  
     156  hru0156                    hru         156     2.0526E-5       0.00916       0.00000  
     157  hru0157                    hru         157     2.9906E-5       0.01335       0.00000  
     158  hru0158                    hru         158     2.1454E-5       0.00958       0.00000  
     159  hru0159                    hru         159     1.5394E-5       0.00687       0.00000  
     160  hru0160                    hru         160     2.2429E-5       0.01002       0.00000  
     161  hru0161                    hru         161     2.3527E-5       0.06991       0.00000  
     162  hru0162                    hru         162     3.6871E-5       0.10957       0.00000  
     163  hru0163                    hru         163     1.2638E-4       0.37555       0.00000  
     164  hru0164                    hru         164     4.3697E-5       0.12985       0.00000  
     165  hru0165                    hru         165     3.0768E-5       0.09143       0.00000  
     166  hru0166                    hru         166     1.1005E-5       0.03270       0.00000  
     167  hru0167                    hru         167     1.9048E-5       0.05660       0.00000  
     168  hru0168                    hru         168     3.6426E-5       0.10824       0.00000  
     169  hru0169                    hru         169     8.8001E-6       0.02615       0.00000  
     170  hru0170                    hru         170     4.4881E-4       0.12010       0.00000  
     171  hru0171                    hru         171     1.5646E-4       0.04187       0.00000  
     172  hru0172                    hru         172     3.6648E-4       0.09807       0.00000  
     173  hru0173                    hru         173     6.4953E-5       0.01738       0.00000  
     174  hru0174                    hru         174     2.6018E-4       0.06963       0.00000  
     175  hru0175                    hru         175     8.0820E-5       0.02163       0.00000  
     176  hru0176                    hru         176     6.1180E-5       0.01637       0.00000  
     177  hru0177                    hru         177     3.7920E-5       0.01015       0.00000  
     178  hru0178                    hru         178     4.6302E-5       0.01239       0.00000  
     179  hru0179                    hru         179     3.7528E-4       0.10043       0.00000  
     180  hru0180                    hru         180     1.3140E-4       0.03516       0.00000  
     181  hru0181                    hru         181     4.5096E-5       0.01207       0.00000  
     182  hru0182                    hru         182     1.0606E-4       0.02838       0.00000  
     183  hru0183                    hru         183     2.0878E-5       0.00559       0.00000  
     184  hru0184                    hru         184     3.9528E-4       0.10578       0.00000  
     185  hru0185                    hru         185     7.1448E-5       0.01912       0.00000  
     186  hru0186                    hru         186     1.2304E-4       0.03293       0.00000  
     187  hru0187                    hru         187     7.1819E-5       0.01922       0.00000  
     188  hru0188                    hru         188     2.1564E-4       0.05771       0.00000  
     189  hru0189                    hru         189     3.9621E-5       0.01060       0.00000  
     190  hru0190                    hru         190     1.0150E-4       0.02716       0.00000  
     191  hru0191                    hru         191     7.5117E-5       0.02010       0.00000  
     192  hru0192                    hru         192     2.5375E-4       0.06790       0.00000  
     193  hru0193                    hru         193     1.8779E-4       0.05025       0.00000  
     194  hru0194                    hru         194     4.1246E-5       0.22459       0.00000  
     195  hru0195                    hru         195     4.0731E-5       0.22178       0.00000  
     196  hru0196                    hru         196     2.7652E-5       0.15057       0.00000  
     197  hru0197                    hru         197     2.3413E-5       0.12749       0.00000  
     198  hru0198                    hru         198     1.8955E-5       0.10321       0.00000  
     199  hru0199                    hru         199     1.9691E-5       0.10722       0.00000  
     200  hru0200                    hru         200     1.1962E-5       0.06513       0.00000  
     201  hru0201                    hru         201     1.2755E-3       0.28303       0.00000  
     202  hru0202                    hru         202     5.4658E-4       0.12129       0.00000  
     203  hru0203                    hru         203     2.4161E-4       0.05362       0.00000  
     204  hru0204                    hru         204     1.6323E-3       0.36221       0.00000  
     205  hru0205                    hru         205     3.6578E-4       0.08117       0.00000  
     206  hru0206                    hru         206     4.4468E-4       0.09868       0.00000  
     207  hru0207                    hru         207     1.7360E-5       0.23615       0.00000  
     208  hru0208                    hru         208     2.6897E-5       0.36589       0.00000  
     209  hru0209                    hru         209     1.5753E-5       0.21429       0.00000  
     210  hru0210                    hru         210     7.6084E-6       0.10350       0.00000  
     211  hru0211                    hru         211     2.8933E-6       0.03936       0.00000  
     212  hru0212                    hru         212     3.0005E-6       0.04082       0.00000  
     213  hru0213                    hru         213     1.1578E-3       0.31302       0.00000  
     214  hru0214                    hru         214     5.4272E-4       0.14673       0.00000  
     215  hru0215                    hru         215     7.8126E-5       0.02112       0.00000  
     216  hru0216                    hru         216     2.2301E-4       0.06029       0.00000  
     217  hru0217                    hru         217     3.5157E-5       0.00950       0.00000  
     218  hru0218                    hru         218     1.0742E-5       0.00290       0.00000  
     219  hru0219                    hru         219     3.3914E-5       0.00917       0.00000  
     220  hru0220                    hru         220     1.0476E-5       0.00283       0.00000  
     221  hru0221                    hru         221     2.5540E-4       0.06905       0.00000  
     222  hru0222                    hru         222     9.4075E-4       0.25433       0.00000  
     223  hru0223                    hru         223     2.6556E-4       0.07179       0.00000  
     224  hru0224                    hru         224     5.4769E-5       0.01481       0.00000  
     225  hru0225                    hru         225     2.8204E-5       0.00763       0.00000  
     226  hru0226                    hru         226     4.1077E-5       0.01111       0.00000  
     227  hru0227                    hru         227     2.1153E-5       0.00572       0.00000  
     228  hru0228                    hru         228     3.8311E-5       0.14177       0.00000  
     229  hru0229                    hru         229     2.2275E-5       0.08243       0.00000  
     230  hru0230                    hru         230     8.4560E-6       0.03129       0.00000  
     231  hru0231                    hru         231     2.5059E-5       0.09273       0.00000  
     232  hru0232                    hru         232     1.9740E-5       0.07305       0.00000  
     233  hru0233                    hru         233     3.2385E-6       0.01198       0.00000  
     234  hru0234                    hru         234     9.4455E-6       0.03495       0.00000  
     235  hru0235                    hru         235     4.6778E-6       0.01731       0.00000  
     236  hru0236                    hru         236     2.8264E-5       0.10459       0.00000  
     237  hru0237                    hru         237     1.2126E-5       0.04487       0.00000  
     238  hru0238                    hru         238     3.8682E-6       0.01431       0.00000  
     239  hru0239                    hru         239     5.2112E-6       0.01928       0.00000  
     240  hru0240                    hru         240     7.4908E-6       0.02772       0.00000  
     241  hru0241                    hru         241     2.1770E-5       0.08056       0.00000  
     242  hru0242                    hru         242     2.0554E-5       0.07606       0.00000  
     243  hru0243                    hru         243     2.1767E-5       0.08055       0.00000  
     244  hru0244                    hru         244     2.5147E-6       0.00931       0.00000  
     245  hru0245                    hru         245     1.1376E-6       0.00421       0.00000  
     246  hru0246                    hru         246     3.1101E-6       0.01151       0.00000  
     247  hru0247                    hru         247     3.5108E-6       0.01299       0.00000  
     248  hru0248                    hru         248     1.8860E-6       0.00698       0.00000  
     249  hru0249                    hru         249     8.5319E-7       0.00316       0.00000  
     250  hru0250                    hru         250     2.3326E-6       0.00863       0.00000  
     251  hru0251                    hru         251     2.6331E-6       0.00974       0.00000  
     252  hru0252                    hru         252     1.3944E-3       0.18859       0.00000  
     253  hru0253                    hru         253     4.2375E-4       0.05731       0.00000  
     254  hru0254                    hru         254     8.2034E-4       0.11095       0.00000  
     255  hru0255                    hru         255     4.4257E-4       0.05986       0.00000  
     256  hru0256                    hru         256     6.3286E-4       0.08560       0.00000  
     257  hru0257                    hru         257     1.1433E-4       0.01546       0.00000  
     258  hru0258                    hru         258     6.4347E-4       0.08703       0.00000  
     259  hru0259                    hru         259     7.3354E-4       0.09921       0.00000  
     260  hru0260                    hru         260     3.9958E-4       0.05404       0.00000  
     261  hru0261                    hru         261     1.1464E-4       0.01551       0.00000  
     262  hru0262                    hru         262     7.1389E-5       0.00966       0.00000  
     263  hru0263                    hru         263     7.5431E-5       0.01020       0.00000  
     264  hru0264                    hru         264     2.8304E-4       0.03828       0.00000  
     265  hru0265                    hru         265     2.2281E-4       0.03014       0.00000  
     266  hru0266                    hru         266     1.8552E-4       0.02509       0.00000  
     267  hru0267                    hru         267     2.1278E-4       0.02878       0.00000  
     268  hru0268                    hru         268     1.3623E-4       0.01843       0.00000  
     269  hru0269                    hru         269     1.3540E-4       0.01831       0.00000  
     270  hru0270                    hru         270     4.3734E-5       0.00592       0.00000  
     271  hru0271                    hru         271     4.0789E-5       0.00552       0.00000  
     272  hru0272                    hru         272     1.0217E-4       0.01382       0.00000  
     273  hru0273                    hru         273     1.0155E-4       0.01373       0.00000  
     274  hru0274                    hru         274     3.2801E-5       0.00444       0.00000  
     275  hru0275                    hru         275     3.0592E-5       0.00414       0.00000  
     276  hru0276                    hru         276     1.7385E-5       0.10647       0.00000  
     277  hru0277                    hru         277     1.3391E-5       0.08201       0.00000  
     278  hru0278                    hru         278     1.0689E-5       0.06547       0.00000  
     279  hru0279                    hru         279     2.1143E-6       0.01295       0.00000  
     280  hru0280                    hru         280     1.8794E-6       0.01151       0.00000  
     281  hru0281                    hru         281     1.1746E-6       0.00719       0.00000  
     282  hru0282                    hru         282     2.3212E-5       0.14217       0.00000  
     283  hru0283                    hru         283     2.2598E-5       0.13841       0.00000  
     284  hru0284                    hru         284     2.7737E-5       0.16988       0.00000  
     285  hru0285                    hru         285     1.7486E-5       0.10710       0.00000  
     286  hru0286                    hru         286     1.0454E-5       0.06403       0.00000  
     287  hru0287                    hru         287     1.0102E-5       0.06187       0.00000  
     288  hru0288                    hru         288     5.0509E-6       0.03094       0.00000  
     289  hru0289                    hru         289     1.0382E-4       0.04296       0.00000  
     290  hru0290                    hru         290     1.9060E-4       0.07886       0.00000  
     291  hru0291                    hru         291     5.2220E-5       0.02161       0.00000  
     292  hru0292                    hru         292     4.4519E-5       0.01842       0.00000  
     293  hru0293                    hru         293     3.0854E-4       0.12766       0.00000  
     294  hru0294                    hru         294     2.0414E-4       0.08447       0.00000  
     295  hru0295                    hru         295     2.9162E-4       0.12066       0.00000  
     296  hru0296                    hru         296     2.5052E-5       0.01037       0.00000  
     297  hru0297                    hru         297     6.7831E-5       0.02807       0.00000  
     298  hru0298                    hru         298     4.2761E-5       0.01769       0.00000  
     299  hru0299                    hru         299     9.0863E-5       0.03760       0.00000  
     300  hru0300                    hru         300     3.7166E-5       0.01538       0.00000  
     301  hru0301                    hru         301     4.0325E-4       0.16685       0.00000  
     302  hru0302                    hru         302     1.0449E-4       0.04324       0.00000  
     303  hru0303                    hru         303     2.1066E-4       0.08716       0.00000  
     304  hru0304                    hru         304     3.0103E-5       0.01246       0.00000  
     305  hru0305                    hru         305     5.8043E-5       0.02402       0.00000  
     306  hru0306                    hru         306     3.3728E-5       0.01396       0.00000  
     307  hru0307                    hru         307     9.0964E-6       0.00376       0.00000  