management.sch: written by SWAT+ editor v2.1.4 on 2022-11-22 14:57 for SWAT+ rev.60.5.4
name                       numb_ops  numb_auto            op_typ       mon       day        hu_sch          op_data1          op_data2      op_data3  
agrc_rot                          0          1  
                                                   pl_hv_winter1   agrc  
agrr_rot                          0          1  
                                                   pl_hv_summer1   agrr  
