object.cnt: written by SWAT+ editor v2.1.4 on 2022-11-22 14:57 for SWAT+ rev.60.5.4
name                   ls_area      tot_area       obj       hru      lhru       rtu       mfl       aqu       cha       res       rec      exco       dlr       can       pmp       out      lcha     aqu2d       hrd       wro  
Model             726828.18169  726828.18169      6107      5463         0       390         0        73         0         3         0         0         0         0         0         0       178         0         0         0  
