om_water.ini: written by SWAT+ editor v2.1.4 on 2022-11-22 14:57 for SWAT+ rev.60.5.4
name                       flo           sed          orgn          sedp           no3          solp         chl_a           nh3           no2       cbn_bod        dis_ox           san           sil           cla           sag           lag           grv           tmp             c  
no_init                0.00000       0.00000       0.00000       0.00000       0.00000       0.00000       0.00000       0.00000       0.00000       0.00000       0.00000       0.00000       0.00000       0.00000       0.00000       0.00000       0.00000       0.00000       0.00000  
