pcp.cli: Precipitation file names - file written by SWAT+ editor 2022-11-22 11:20:28.506575
filename
6951_PCP.pcp
6952_PCP.pcp
6953_PCP.pcp
6955_PCP.pcp
6956_PCP.pcp
6957_PCP.pcp
6958_PCP.pcp
7069_PCP.pcp
7070_PCP.pcp
7071_PCP.pcp
7072_PCP.pcp
7073_PCP.pcp
7074_PCP.pcp
7075_PCP.pcp
7076_PCP.pcp
7077_PCP.pcp
7078_PCP.pcp
7079_PCP.pcp
7188_PCP.pcp
7189_PCP.pcp
7190_PCP.pcp
7191_PCP.pcp
7192_PCP.pcp
7193_PCP.pcp
7194_PCP.pcp
7195_PCP.pcp
7196_PCP.pcp
7197_PCP.pcp
7198_PCP.pcp
7199_PCP.pcp
7304_PCP.pcp
7305_PCP.pcp
7306_PCP.pcp
7307_PCP.pcp
7308_PCP.pcp
7309_PCP.pcp
7310_PCP.pcp
7311_PCP.pcp
7312_PCP.pcp
7313_PCP.pcp
7314_PCP.pcp
7315_PCP.pcp
7416_PCP.pcp
7417_PCP.pcp
7418_PCP.pcp
7419_PCP.pcp
7420_PCP.pcp
7421_PCP.pcp
7422_PCP.pcp
7423_PCP.pcp
7424_PCP.pcp
7425_PCP.pcp
7426_PCP.pcp
7427_PCP.pcp
7428_PCP.pcp
7526_PCP.pcp
7527_PCP.pcp
7528_PCP.pcp
7529_PCP.pcp
7530_PCP.pcp
7531_PCP.pcp
7532_PCP.pcp
7533_PCP.pcp
7534_PCP.pcp
7535_PCP.pcp
7536_PCP.pcp
7537_PCP.pcp
7538_PCP.pcp
7539_PCP.pcp
7540_PCP.pcp
7541_PCP.pcp
7542_PCP.pcp
7543_PCP.pcp
7544_PCP.pcp
7545_PCP.pcp
7636_PCP.pcp
7637_PCP.pcp
7638_PCP.pcp
7639_PCP.pcp
7640_PCP.pcp
7641_PCP.pcp
7642_PCP.pcp
7643_PCP.pcp
7644_PCP.pcp
7645_PCP.pcp
7646_PCP.pcp
7647_PCP.pcp
7648_PCP.pcp
7649_PCP.pcp
7650_PCP.pcp
7651_PCP.pcp
7652_PCP.pcp
7653_PCP.pcp
7654_PCP.pcp
7655_PCP.pcp
7656_PCP.pcp
7747_PCP.pcp
7748_PCP.pcp
7749_PCP.pcp
7750_PCP.pcp
7751_PCP.pcp
7752_PCP.pcp
7753_PCP.pcp
7754_PCP.pcp
7755_PCP.pcp
7756_PCP.pcp
7757_PCP.pcp
7758_PCP.pcp
7759_PCP.pcp
7760_PCP.pcp
7761_PCP.pcp
7762_PCP.pcp
7763_PCP.pcp
7764_PCP.pcp
7765_PCP.pcp
7766_PCP.pcp
7767_PCP.pcp
7863_PCP.pcp
7864_PCP.pcp
7865_PCP.pcp
7866_PCP.pcp
7867_PCP.pcp
7868_PCP.pcp
7869_PCP.pcp
7870_PCP.pcp
7871_PCP.pcp
7872_PCP.pcp
7873_PCP.pcp
7874_PCP.pcp
7875_PCP.pcp
7876_PCP.pcp
7877_PCP.pcp
7878_PCP.pcp
7879_PCP.pcp
7880_PCP.pcp
7881_PCP.pcp
7882_PCP.pcp
7883_PCP.pcp
7979_PCP.pcp
7980_PCP.pcp
7981_PCP.pcp
7982_PCP.pcp
7983_PCP.pcp
7984_PCP.pcp
7985_PCP.pcp
7986_PCP.pcp
7987_PCP.pcp
7988_PCP.pcp
7989_PCP.pcp
7990_PCP.pcp
7991_PCP.pcp
7992_PCP.pcp
7993_PCP.pcp
7994_PCP.pcp
7995_PCP.pcp
7996_PCP.pcp
7997_PCP.pcp
7998_PCP.pcp
7999_PCP.pcp
8000_PCP.pcp
8092_PCP.pcp
8093_PCP.pcp
8094_PCP.pcp
8095_PCP.pcp
8096_PCP.pcp
8097_PCP.pcp
8098_PCP.pcp
8099_PCP.pcp
8100_PCP.pcp
8101_PCP.pcp
8102_PCP.pcp
8103_PCP.pcp
8104_PCP.pcp
8105_PCP.pcp
8106_PCP.pcp
8107_PCP.pcp
8108_PCP.pcp
8109_PCP.pcp
8110_PCP.pcp
8111_PCP.pcp
8112_PCP.pcp
8113_PCP.pcp
8114_PCP.pcp
8202_PCP.pcp
8203_PCP.pcp
8204_PCP.pcp
8205_PCP.pcp
8206_PCP.pcp
8207_PCP.pcp
8208_PCP.pcp
8209_PCP.pcp
8210_PCP.pcp
8211_PCP.pcp
8212_PCP.pcp
8213_PCP.pcp
8214_PCP.pcp
8215_PCP.pcp
8216_PCP.pcp
8217_PCP.pcp
8218_PCP.pcp
8219_PCP.pcp
8220_PCP.pcp
8221_PCP.pcp
8222_PCP.pcp
8223_PCP.pcp
8224_PCP.pcp
8313_PCP.pcp
8314_PCP.pcp
8315_PCP.pcp
8316_PCP.pcp
8317_PCP.pcp
8318_PCP.pcp
8319_PCP.pcp
8320_PCP.pcp
8321_PCP.pcp
8322_PCP.pcp
8323_PCP.pcp
8324_PCP.pcp
8325_PCP.pcp
8326_PCP.pcp
8327_PCP.pcp
8328_PCP.pcp
8329_PCP.pcp
8330_PCP.pcp
8331_PCP.pcp
8332_PCP.pcp
8333_PCP.pcp
8334_PCP.pcp
8335_PCP.pcp
8336_PCP.pcp
8424_PCP.pcp
8425_PCP.pcp
8426_PCP.pcp
8427_PCP.pcp
8428_PCP.pcp
8429_PCP.pcp
8430_PCP.pcp
8431_PCP.pcp
8432_PCP.pcp
8433_PCP.pcp
8434_PCP.pcp
8435_PCP.pcp
8436_PCP.pcp
8437_PCP.pcp
8438_PCP.pcp
8439_PCP.pcp
8440_PCP.pcp
8441_PCP.pcp
8442_PCP.pcp
8443_PCP.pcp
8444_PCP.pcp
8445_PCP.pcp
8446_PCP.pcp
8447_PCP.pcp
8536_PCP.pcp
8537_PCP.pcp
8538_PCP.pcp
8539_PCP.pcp
8540_PCP.pcp
8541_PCP.pcp
8542_PCP.pcp
8543_PCP.pcp
8544_PCP.pcp
8545_PCP.pcp
8546_PCP.pcp
8547_PCP.pcp
8548_PCP.pcp
8549_PCP.pcp
8550_PCP.pcp
8551_PCP.pcp
8552_PCP.pcp
8553_PCP.pcp
8554_PCP.pcp
8555_PCP.pcp
8556_PCP.pcp
8557_PCP.pcp
8558_PCP.pcp
8559_PCP.pcp
8649_PCP.pcp
8650_PCP.pcp
8651_PCP.pcp
8652_PCP.pcp
8653_PCP.pcp
8654_PCP.pcp
8655_PCP.pcp
8656_PCP.pcp
8657_PCP.pcp
8658_PCP.pcp
8659_PCP.pcp
8660_PCP.pcp
8661_PCP.pcp
8662_PCP.pcp
8663_PCP.pcp
8664_PCP.pcp
8665_PCP.pcp
8666_PCP.pcp
8667_PCP.pcp
8668_PCP.pcp
8669_PCP.pcp
8670_PCP.pcp
8762_PCP.pcp
8763_PCP.pcp
8764_PCP.pcp
8765_PCP.pcp
8766_PCP.pcp
8767_PCP.pcp
8768_PCP.pcp
8769_PCP.pcp
8770_PCP.pcp
8771_PCP.pcp
8772_PCP.pcp
8773_PCP.pcp
8774_PCP.pcp
8775_PCP.pcp
8776_PCP.pcp
8777_PCP.pcp
8778_PCP.pcp
8779_PCP.pcp
8780_PCP.pcp
8781_PCP.pcp
8877_PCP.pcp
8878_PCP.pcp
8879_PCP.pcp
8880_PCP.pcp
8881_PCP.pcp
8882_PCP.pcp
8883_PCP.pcp
8884_PCP.pcp
8885_PCP.pcp
8886_PCP.pcp
8887_PCP.pcp
8888_PCP.pcp
8889_PCP.pcp
8890_PCP.pcp
8891_PCP.pcp
8892_PCP.pcp
8893_PCP.pcp
8894_PCP.pcp
8895_PCP.pcp
8896_PCP.pcp
8998_PCP.pcp
8999_PCP.pcp
9000_PCP.pcp
9001_PCP.pcp
9002_PCP.pcp
9003_PCP.pcp
9004_PCP.pcp
9005_PCP.pcp
9006_PCP.pcp
9007_PCP.pcp
9008_PCP.pcp
9009_PCP.pcp
9010_PCP.pcp
9011_PCP.pcp
9012_PCP.pcp
9117_PCP.pcp
9118_PCP.pcp
9119_PCP.pcp
9120_PCP.pcp
9121_PCP.pcp
9122_PCP.pcp
9123_PCP.pcp
9124_PCP.pcp
9125_PCP.pcp
9126_PCP.pcp
9127_PCP.pcp
9128_PCP.pcp
9129_PCP.pcp
9234_PCP.pcp
9235_PCP.pcp
9236_PCP.pcp
9237_PCP.pcp
9238_PCP.pcp
9239_PCP.pcp
9240_PCP.pcp
9241_PCP.pcp
9242_PCP.pcp
9243_PCP.pcp
9348_PCP.pcp
9349_PCP.pcp
9350_PCP.pcp
9351_PCP.pcp
9352_PCP.pcp
9353_PCP.pcp
9354_PCP.pcp
9355_PCP.pcp
9464_PCP.pcp
9465_PCP.pcp
9466_PCP.pcp
9467_PCP.pcp
