pcf
* control data
restart	estimation								
32	4479	6	0	6										
6	1	single	point	1	0	0
10.0	2.0	0.3	0.03	10
3.0	3.0	0.001 0							
0.1
3	0.005	4	4	0.005	3
1	1	1
* singular value decomposition
1
32  5e-7
0 
* parameter groups
gwflow	        relative	0.01   	0	switch	2.0	parabolic
chanels	        relative	0.01   	0	switch	2.0	parabolic
hydrology	        relative	0.01   	0	switch	2.0	parabolic
basin	        relative	0.01   	0	switch	2.0	parabolic
soil	        relative	0.01   	0	switch	2.0	parabolic
topography	        relative	0.01   	0	switch	2.0	parabolic
* parameter data
manna	log	factor	0.0304223	1.00E-02	0.15	chanels	1	0	1
bedk1	log	factor	1.22E-05	5.00E-06	0.0005	gwflow	1	0	1
bedt1	log	factor	0.75624	5.00E-02	1	gwflow	1	0	1
bedt2	log	factor	0.527296	1.00E-02	1	gwflow	1	0	1
kaq1	log	factor	0.620157	1.00E-02	4	gwflow	1	0	1
sy1	log	factor	0.00467469	3.00E-03	0.05	gwflow	1	0	1
cn3_swf0.3a	log	factor	0.675939	1.00E-02	0.8	hydrology	1	0	1
esco0.95a	log	factor	0.160718	1.00E-02	1	hydrology	1	0	1
lat_ttime0a	log	factor	0.621019	5.00E-01	10	hydrology	1	0	1
latq_co0.2a	log	factor	0.0783014	1.00E-02	0.7	hydrology	1	0	1
perco0.05a	log	factor	1	1.00E-02	1	hydrology	1	0	1
perco0.5a	log	factor	0.399603	1.00E-02	1	hydrology	1	0	1
awca1	log	factor	0.320416	5.99E-02	1	soil	1	0	1
awca3	log	factor	0.274351	5.79E-02	1	soil	1	0	1
awca5	log	factor	0.185751	5.52E-02	1	soil	1	0	1
awca6	log	factor	0.0557683	5.47E-02	1	soil	1	0	1
bda1	log	factor	1.24868	7.60E-01	2.5	soil	1	0	1
bda2	log	factor	1.24875	8.15E-01	2.5	soil	1	0	1
bda3	log	factor	0.915246	8.93E-01	2.5	soil	1	0	1
bda4	log	factor	0.963	9.63E-01	2.5	soil	1	0	1
bda5	log	factor	1.06332	9.98E-01	2.5	soil	1	0	1
bda6	log	factor	1.47138	1.01E+00	2.5	soil	1	0	1
ksola1	log	factor	14.6162	7.24E+00	217.32	soil	1	0	1
ksola2	log	factor	14.1679	7.01E+00	210.36	soil	1	0	1
ksola3	log	factor	29.1387	6.25E+00	187.5	soil	1	0	1
ksola6	log	factor	39.6143	5.70E+00	171	soil	1	0	1
zsola4	log	factor	716.501	3.61E+02	720	soil	1	0	1
zsola5	log	factor	828.987	7.21E+02	1200	soil	1	0	1
zsola6	log	factor	2117.84	1.20E+03	2400	soil	1	0	1
lat_lena1	log	factor	90	3.00E+01	90	topography	1	0	1
lat_lenb1	log	factor	11.3599	5.00E+00	15	topography	1	0	1
surq_lag	log	factor	0.942803	5.00E-02	24	basin	1	0	1
* observation groups
streamflowa
streamflowb
streamflowc
streamflowd
streamflowe
gwhead
* observation data
QA1827	4.427	1.0	streamflowa
QA1828	4.27	1.0	streamflowa
QA1829	4.113	1.0	streamflowa
QA1830	3.956	1.0	streamflowa
QA1831	3.799	1.0	streamflowa
QA1832	4.113	1.0	streamflowa
QA1833	5.483	1.0	streamflowa
QA1834	5.483	1.0	streamflowa
QA1835	6.022	1.0	streamflowa
QA1836	6.585	1.0	streamflowa
QA1837	6.382	1.0	streamflowa
QA1838	6.202	1.0	streamflowa
QA1839	6.022	1.0	streamflowa
QA1840	5.483	1.0	streamflowa
QA1841	5.123	1.0	streamflowa
QA1842	4.764	1.0	streamflowa
QA1843	4.584	1.0	streamflowa
QA1844	4.584	1.0	streamflowa
QA1845	4.427	1.0	streamflowa
QA1846	4.427	1.0	streamflowa
QA1847	4.27	1.0	streamflowa
QA1848	4.113	1.0	streamflowa
QA1849	3.956	1.0	streamflowa
QA1850	3.799	1.0	streamflowa
QA1851	3.799	1.0	streamflowa
QA1852	3.641	1.0	streamflowa
QA1853	3.484	1.0	streamflowa
QA1854	3.327	1.0	streamflowa
QA1855	3.327	1.0	streamflowa
QA1856	3.327	1.0	streamflowa
QA1857	3.17	1.0	streamflowa
QA1858	3.17	1.0	streamflowa
QA1859	3.013	1.0	streamflowa
QA1860	3.013	1.0	streamflowa
QA1861	2.873	2.0	streamflowb
QA1862	2.873	2.0	streamflowb
QA1863	2.873	2.0	streamflowb
QA1864	2.873	2.0	streamflowb
QA1865	2.873	2.0	streamflowb
QA1866	2.873	2.0	streamflowb
QA1867	2.873	2.0	streamflowb
QA1868	3.013	1.0	streamflowa
QA1869	3.013	1.0	streamflowa
QA1870	3.013	1.0	streamflowa
QA1871	3.17	1.0	streamflowa
QA1872	3.484	1.0	streamflowa
QA1873	3.956	1.0	streamflowa
QA1874	4.113	1.0	streamflowa
QA1875	4.27	1.0	streamflowa
QA1876	4.427	1.0	streamflowa
QA1877	7.395	1.0	streamflowa
QA1878	8.632	1.0	streamflowa
QA1879	11.65	1.0	streamflowa
QA1880	16.43	1.0	streamflowa
QA1881	12.145	1.0	streamflowa
QA1882	10.208	1.0	streamflowa
QA1883	8.407	1.0	streamflowa
QA1884	7.8	1.0	streamflowa
QA1885	7.192	1.0	streamflowa
QA1886	6.585	1.0	streamflowa
QA1887	6.202	1.0	streamflowa
QA1888	5.663	1.0	streamflowa
QA1889	5.303	1.0	streamflowa
QA1890	4.944	1.0	streamflowa
QA1891	4.764	1.0	streamflowa
QA1892	4.764	1.0	streamflowa
QA1893	4.764	1.0	streamflowa
QA1894	4.584	1.0	streamflowa
QA1895	4.584	1.0	streamflowa
QA1896	4.427	1.0	streamflowa
QA1897	4.764	1.0	streamflowa
QA1898	5.303	1.0	streamflowa
QA1899	5.483	1.0	streamflowa
QA1900	6.382	1.0	streamflowa
QA1901	8.857	1.0	streamflowa
QA1902	12.889	1.0	streamflowa
QA1903	18.776	1.0	streamflowa
QA1904	18.483	1.0	streamflowa
QA1905	13.408	1.0	streamflowa
QA1906	11.154	1.0	streamflowa
QA1907	9.983	1.0	streamflowa
QA1908	8.632	1.0	streamflowa
QA1909	8.205	1.0	streamflowa
QA1910	8.205	1.0	streamflowa
QA1911	8.002	1.0	streamflowa
QA1912	8.205	1.0	streamflowa
QA1913	9.983	1.0	streamflowa
QA1914	8.407	1.0	streamflowa
QA1915	7.597	1.0	streamflowa
QA1916	6.99	1.0	streamflowa
QA1917	6.585	1.0	streamflowa
QA1918	6.202	1.0	streamflowa
QA1919	6.022	1.0	streamflowa
QA1920	6.382	1.0	streamflowa
QA1921	5.843	1.0	streamflowa
QA1922	5.483	1.0	streamflowa
QA1923	5.123	1.00	streamflowa
QA1924	4.944	1.00	streamflowa
QA1925	4.764	1.00	streamflowa
QA1926	4.584	1.00	streamflowa
QA1927	4.427	1.00	streamflowa
QA1928	4.27	1.00	streamflowa
QA1929	4.113	1.00	streamflowa
QA1930	4.113	1.00	streamflowa
QA1931	3.956	1.00	streamflowa
QA1932	3.799	1.00	streamflowa
QA1933	3.641	1.00	streamflowa
QA1934	3.641	1.00	streamflowa
QA1935	3.641	1.00	streamflowa
QA1936	3.641	1.00	streamflowa
QA1937	3.484	1.00	streamflowa
QA1938	3.956	1.00	streamflowa
QA1939	4.113	1.00	streamflowa
QA1940	3.799	1.00	streamflowa
QA1941	3.799	1.00	streamflowa
QA1942	3.956	1.00	streamflowa
QA1943	3.799	1.00	streamflowa
QA1944	3.641	1.00	streamflowa
QA1945	3.641	1.00	streamflowa
QA1946	3.956	1.00	streamflowa
QA1947	3.956	1.00	streamflowa
QA1948	3.799	1.00	streamflowa
QA1949	4.584	1.00	streamflowa
QA1950	5.123	1.00	streamflowa
QA1951	4.764	1.00	streamflowa
QA1952	4.584	1.00	streamflowa
QA1953	5.123	1.00	streamflowa
QA1954	8.002	1.00	streamflowa
QA1955	6.585	1.00	streamflowa
QA1956	4.944	1.00	streamflowa
QA1957	5.123	1.00	streamflowa
QA1958	4.764	1.00	streamflowa
QA1959	4.764	1.00	streamflowa
QA1960	4.584	1.00	streamflowa
QA1961	5.123	1.00	streamflowa
QA1962	4.584	1.00	streamflowa
QA1963	4.27	1.00	streamflowa
QA1964	4.113	1.00	streamflowa
QA1965	3.956	1.00	streamflowa
QA1966	3.799	1.00	streamflowa
QA1967	3.799	1.00	streamflowa
QA1968	3.641	1.00	streamflowa
QA1969	3.484	1.00	streamflowa
QA1970	3.484	1.00	streamflowa
QA1971	3.327	1.00	streamflowa
QA1972	3.327	1.00	streamflowa
QA1973	3.327	1.00	streamflowa
QA1974	3.327	1.00	streamflowa
QA1975	3.327	1.00	streamflowa
QA1976	3.327	1.00	streamflowa
QA1977	3.484	1.00	streamflowa
QA1978	3.327	1.00	streamflowa
QA1979	3.17	1.00	streamflowa
QA1980	3.17	1.00	streamflowa
QA1981	3.013	1.00	streamflowa
QA1982	3.17	1.00	streamflowa
QA1983	3.17	1.00	streamflowa
QA1984	3.641	1.00	streamflowa
QA1985	4.764	1.00	streamflowa
QA1986	3.956	1.00	streamflowa
QA1987	3.641	1.00	streamflowa
QA1988	3.484	1.00	streamflowa
QA1989	3.327	1.00	streamflowa
QA1990	3.17	1.00	streamflowa
QA1991	3.17	1.00	streamflowa
QA1992	3.013	1.00	streamflowa
QA1993	2.873	2.00	streamflowb
QA1994	2.873	2.00	streamflowb
QA1995	2.873	2.00	streamflowb
QA1996	2.733	2.00	streamflowb
QA1997	2.733	2.00	streamflowb
QA1998	2.733	2.00	streamflowb
QA1999	2.733	2.00	streamflowb
QA2000	2.733	2.00	streamflowb
QA2001	2.733	2.00	streamflowb
QA2002	2.733	2.00	streamflowb
QA2003	2.733	2.00	streamflowb
QA2004	2.593	2.00	streamflowb
QA2005	2.593	2.00	streamflowb
QA2006	2.453	2.00	streamflowb
QA2007	2.453	2.00	streamflowb
QA2008	2.453	2.00	streamflowb
QA2009	2.453	2.00	streamflowb
QA2010	2.313	2.00	streamflowb
QA2011	2.313	2.00	streamflowb
QA2012	2.313	2.00	streamflowb
QA2013	2.313	2.00	streamflowb
QA2014	2.313	2.00	streamflowb
QA2015	2.184	2.00	streamflowb
QA2016	2.184	2.00	streamflowb
QA2017	2.184	2.00	streamflowb
QA2018	2.184	2.00	streamflowb
QA2019	2.184	2.00	streamflowb
QA2020	2.184	2.00	streamflowb
QA2021	2.184	2.00	streamflowb
QA2022	2.184	2.00	streamflowb
QA2023	2.184	2.00	streamflowb
QA2024	2.184	2.00	streamflowb
QA2025	2.184	2.00	streamflowb
QA2026	2.184	2.00	streamflowb
QA2027	2.184	2.00	streamflowb
QA2028	2.184	2.00	streamflowb
QA2029	2.184	2.00	streamflowb
QA2030	2.056	2.00	streamflowb
QA2031	2.056	2.00	streamflowb
QA2032	2.056	2.00	streamflowb
QA2033	2.056	2.00	streamflowb
QA2034	2.056	2.00	streamflowb
QA2035	2.056	2.00	streamflowb
QA2036	2.056	2.00	streamflowb
QA2037	2.056	2.00	streamflowb
QA2038	2.056	2.00	streamflowb
QA2039	2.056	2.00	streamflowb
QA2040	1.927	2.00	streamflowb
QA2041	1.927	2.00	streamflowb
QA2042	1.927	2.00	streamflowb
QA2043	1.927	2.00	streamflowb
QA2044	1.799	2.00	streamflowb
QA2045	1.799	2.00	streamflowb
QA2046	1.799	2.00	streamflowb
QA2047	1.799	2.00	streamflowb
QA2048	1.67	3.00	streamflowc
QA2049	1.67	3.00	streamflowc
QA2050	1.67	3.00	streamflowc
QA2051	1.927	2.00	streamflowb
QA2052	1.799	2.00	streamflowb
QA2053	1.67	3.00	streamflowc
QA2054	1.67	3.00	streamflowc
QA2055	1.67	3.00	streamflowc
QA2056	1.67	3.00	streamflowc
QA2057	1.67	3.00	streamflowc
QA2058	1.67	3.00	streamflowc
QA2059	1.67	3.00	streamflowc
QA2060	1.555	3.00	streamflowc
QA2061	1.555	3.00	streamflowc
QA2062	1.555	3.00	streamflowc
QA2063	1.555	3.00	streamflowc
QA2064	1.555	3.00	streamflowc
QA2065	1.555	3.00	streamflowc
QA2066	1.555	3.00	streamflowc
QA2067	1.555	3.00	streamflowc
QA2068	1.555	3.00	streamflowc
QA2069	1.555	3.00	streamflowc
QA2070	1.555	3.00	streamflowc
QA2071	1.555	3.00	streamflowc
QA2072	1.555	3.00	streamflowc
QA2073	1.555	3.00	streamflowc
QA2074	1.555	3.00	streamflowc
QA2075	1.44	3.00	streamflowc
QA2076	1.44	3.00	streamflowc
QA2077	1.44	3.00	streamflowc
QA2078	1.44	3.00	streamflowc
QA2079	1.44	3.00	streamflowc
QA2080	1.325	4.00	streamflowd
QA2081	1.325	4.00	streamflowd
QA2082	1.325	4.00	streamflowd
QA2083	1.325	4.00	streamflowd
QA2084	1.325	4.00	streamflowd
QA2085	1.325	4.00	streamflowd
QA2086	1.325	4.00	streamflowd
QA2087	1.21	4.00	streamflowd
QA2088	1.21	4.00	streamflowd
QA2089	1.21	4.00	streamflowd
QA2090	1.21	4.00	streamflowd
QA2091	1.21	4.00	streamflowd
QA2092	1.21	4.00	streamflowd
QA2093	1.21	4.00	streamflowd
QA2094	1.21	4.00	streamflowd
QA2095	1.21	4.00	streamflowd
QA2096	1.21	4.00	streamflowd
QA2097	1.21	4.00	streamflowd
QA2098	1.21	4.00	streamflowd
QA2099	1.21	4.00	streamflowd
QA2100	1.291	4.00	streamflowd
QA2101	1.291	4.00	streamflowd
QA2102	1.291	4.00	streamflowd
QA2103	1.291	4.00	streamflowd
QA2104	1.291	4.00	streamflowd
QA2105	1.291	4.00	streamflowd
QA2106	1.291	4.00	streamflowd
QA2107	1.291	4.00	streamflowd
QA2108	1.291	4.00	streamflowd
QA2109	1.291	4.00	streamflowd
QA2110	1.291	4.00	streamflowd
QA2111	1.291	4.00	streamflowd
QA2112	1.291	4.00	streamflowd
QA2113	1.291	4.00	streamflowd
QA2114	1.291	4.00	streamflowd
QA2115	1.291	4.00	streamflowd
QA2116	1.291	4.00	streamflowd
QA2117	1.291	4.00	streamflowd
QA2118	1.291	4.00	streamflowd
QA2119	1.291	4.00	streamflowd
QA2120	1.291	4.00	streamflowd
QA2121	1.291	4.00	streamflowd
QA2122	1.291	4.00	streamflowd
QA2123	1.291	4.00	streamflowd
QA2124	1.376	3.00	streamflowc
QA2125	1.291	4.00	streamflowd
QA2126	1.376	3.00	streamflowc
QA2127	1.291	4.00	streamflowd
QA2128	1.291	4.00	streamflowd
QA2129	1.291	4.00	streamflowd
QA2130	1.291	4.00	streamflowd
QA2131	1.291	4.00	streamflowd
QA2132	1.291	4.00	streamflowd
QA2133	1.546	3.00	streamflowc
QA2134	1.716	3.00	streamflowc
QA2135	1.839	2.00	streamflowb
QA2136	2.948	2.00	streamflowb
QA2137	2.578	2.00	streamflowb
QA2138	2.455	2.00	streamflowb
QA2139	2.209	2.00	streamflowb
QA2140	2.086	2.00	streamflowb
QA2141	1.839	2.00	streamflowb
QA2142	1.716	3.00	streamflowc
QA2143	1.716	3.00	streamflowc
QA2144	1.631	3.00	streamflowc
QA2145	1.546	3.00	streamflowc
QA2146	1.716	3.00	streamflowc
QA2147	1.716	3.00	streamflowc
QA2148	1.631	3.00	streamflowc
QA2149	1.631	3.00	streamflowc
QA2150	1.631	3.00	streamflowc
QA2151	1.631	3.00	streamflowc
QA2152	1.631	3.00	streamflowc
QA2153	1.716	3.00	streamflowc
QA2154	1.839	2.00	streamflowb
QA2155	1.839	2.00	streamflowb
QA2156	1.716	3.00	streamflowc
QA2157	1.716	3.00	streamflowc
QA2158	1.716	3.00	streamflowc
QA2159	1.631	3.00	streamflowc
QA2160	1.631	3.00	streamflowc
QA2161	1.631	3.00	streamflowc
QA2162	1.631	3.00	streamflowc
QA2163	1.631	3.00	streamflowc
QA2164	1.546	3.00	streamflowc
QA2165	1.546	3.00	streamflowc
QA2166	1.546	3.00	streamflowc
QA2167	1.546	3.00	streamflowc
QA2168	1.546	3.00	streamflowc
QA2169	1.546	3.00	streamflowc
QA2170	1.546	3.00	streamflowc
QA2171	1.461	3.00	streamflowc
QA2172	1.461	3.00	streamflowc
QA2173	1.461	3.00	streamflowc
QA2174	1.461	3.00	streamflowc
QA2175	1.461	3.00	streamflowc
QA2176	1.461	3.00	streamflowc
QA2177	1.461	3.00	streamflowc
QA2178	1.461	3.00	streamflowc
QA2179	1.461	3.00	streamflowc
QA2180	1.461	3.00	streamflowc
QA2181	1.461	3.00	streamflowc
QA2182	1.376	3.00	streamflowc
QA2183	1.376	3.00	streamflowc
QA2184	1.376	3.00	streamflowc
QA2185	1.376	3.00	streamflowc
QA2186	1.376	3.00	streamflowc
QA2187	1.376	3.00	streamflowc
QA2188	1.376	3.00	streamflowc
QA2189	1.376	3.00	streamflowc
QA2190	1.291	4.00	streamflowd
QA2191	1.291	4.00	streamflowd
QA2192	1.291	4.00	streamflowd
QA2193	1.291	4.00	streamflowd
QA2194	1.291	4.00	streamflowd
QA2195	1.291	4.00	streamflowd
QA2196	1.291	4.00	streamflowd
QA2197	1.291	4.00	streamflowd
QA2198	1.291	4.00	streamflowd
QA2199	1.291	4.00	streamflowd
QA2200	1.291	4.00	streamflowd
QA2201	1.205	4.00	streamflowd
QA2202	1.205	4.00	streamflowd
QA2203	1.205	4.00	streamflowd
QA2204	1.205	4.00	streamflowd
QA2205	1.205	4.00	streamflowd
QA2206	1.205	4.00	streamflowd
QA2207	1.291	4.00	streamflowd
QA2208	1.205	4.00	streamflowd
QA2209	1.205	4.00	streamflowd
QA2210	1.205	4.00	streamflowd
QA2211	1.205	4.00	streamflowd
QA2212	1.205	4.00	streamflowd
QA2213	1.205	4.00	streamflowd
QA2214	1.205	4.00	streamflowd
QA2215	1.205	4.00	streamflowd
QA2216	1.205	4.00	streamflowd
QA2217	1.205	4.00	streamflowd
QA2218	1.205	4.00	streamflowd
QA2219	1.205	4.00	streamflowd
QA2220	1.205	4.00	streamflowd
QA2221	1.12	4.00	streamflowd
QA2222	1.12	4.00	streamflowd
QA2223	1.12	4.00	streamflowd
QA2224	1.12	4.00	streamflowd
QA2225	1.12	4.00	streamflowd
QA2226	1.12	4.00	streamflowd
QA2227	1.205	4.00	streamflowd
QA2228	1.12	4.00	streamflowd
QA2229	1.12	4.00	streamflowd
QA2230	1.12	4.00	streamflowd
QA2231	1.12	4.00	streamflowd
QA2232	1.12	4.00	streamflowd
QA2233	1.12	4.00	streamflowd
QA2234	1.12	4.00	streamflowd
QA2235	1.12	4.00	streamflowd
QA2236	1.12	4.00	streamflowd
QA2237	1.035	5.00	streamflowe
QA2238	1.035	5.00	streamflowe
QA2239	1.035	5.00	streamflowe
QA2240	1.035	5.00	streamflowe
QA2241	1.035	5.00	streamflowe
QA2242	1.035	5.00	streamflowe
QA2243	1.035	5.00	streamflowe
QA2244	1.035	5.00	streamflowe
QA2245	1.035	5.00	streamflowe
QA2246	1.035	5.00	streamflowe
QA2247	1.035	5.00	streamflowe
QA2248	1.035	5.00	streamflowe
QA2249	1.035	5.00	streamflowe
QA2250	1.035	5.00	streamflowe
QA2251	1.035	5.00	streamflowe
QA2252	1.035	5.00	streamflowe
QA2253	1.035	5.00	streamflowe
QA2254	1.035	5.00	streamflowe
QA2255	1.035	5.00	streamflowe
QA2256	1.035	5.00	streamflowe
QA2257	1.035	5.00	streamflowe
QA2258	1.035	5.00	streamflowe
QA2259	1.035	5.00	streamflowe
QA2260	0.95	5.00	streamflowe
QA2261	0.95	5.00	streamflowe
QA2262	0.95	5.00	streamflowe
QA2263	0.95	5.00	streamflowe
QA2264	0.95	5.00	streamflowe
QA2265	0.95	5.00	streamflowe
QA2266	0.95	5.00	streamflowe
QA2267	0.95	5.00	streamflowe
QA2268	0.95	5.00	streamflowe
QA2269	0.95	5.00	streamflowe
QA2270	0.95	5.00	streamflowe
QA2271	0.95	5.00	streamflowe
QA2272	1.035	5.00	streamflowe
QA2273	0.95	5.00	streamflowe
QA2274	0.95	5.00	streamflowe
QA2275	0.95	5.00	streamflowe
QA2276	0.95	5.00	streamflowe
QA2277	0.95	5.00	streamflowe
QA2278	0.95	5.00	streamflowe
QA2279	0.95	5.00	streamflowe
QA2280	0.95	5.00	streamflowe
QA2281	0.95	5.00	streamflowe
QA2282	0.95	5.00	streamflowe
QA2283	0.95	5.00	streamflowe
QA2284	0.95	5.00	streamflowe
QA2285	1.035	5.00	streamflowe
QA2286	1.12	4.00	streamflowd
QA2287	1.205	4.00	streamflowd
QA2288	1.291	4.00	streamflowd
QA2289	1.376	3.00	streamflowc
QA2290	1.376	3.00	streamflowc
QA2291	1.376	3.00	streamflowc
QA2292	1.376	3.00	streamflowc
QA2293	1.376	3.00	streamflowc
QA2294	1.376	3.00	streamflowc
QA2295	1.376	3.00	streamflowc
QA2296	1.546	3.00	streamflowc
QA2297	2.578	2.00	streamflowb
QA2298	2.702	2.00	streamflowb
QA2299	2.455	2.00	streamflowb
QA2300	2.209	2.00	streamflowb
QA2301	4.24	1.00	streamflowa
QA2302	9.488	1.00	streamflowa
QA2303	6.159	1.00	streamflowa
QA2304	4.563	1.00	streamflowa
QA2305	3.756	1.00	streamflowa
QA2306	3.271	1.00	streamflowa
QA2307	2.702	2.00	streamflowb
QA2308	2.578	2.00	streamflowb
QA2309	2.455	2.00	streamflowb
QA2310	2.578	2.00	streamflowb
QA2311	3.756	1.00	streamflowa
QA2312	4.962	1.00	streamflowa
QA2313	7.509	1.00	streamflowa
QA2314	6.159	1.00	streamflowa
QA2315	5.162	1.00	streamflowa
QA2316	4.402	1.00	streamflowa
QA2317	4.24	1.00	streamflowa
QA2318	4.079	1.00	streamflowa
QA2319	3.756	1.00	streamflowa
QA2320	3.433	1.00	streamflowa
QA2321	3.271	1.00	streamflowa
QA2322	2.948	2.00	streamflowb
QA2323	2.702	2.00	streamflowb
QA2324	2.825	2.00	streamflowb
QA2325	2.825	2.00	streamflowb
QA2326	2.578	2.00	streamflowb
QA2327	2.578	2.00	streamflowb
QA2328	2.455	2.00	streamflowb
QA2329	2.332	2.00	streamflowb
QA2330	2.332	2.00	streamflowb
QA2331	2.455	2.00	streamflowb
QA2332	2.578	2.00	streamflowb
QA2333	2.332	2.00	streamflowb
QA2334	2.332	2.00	streamflowb
QA2335	2.209	2.00	streamflowb
QA2336	2.086	2.00	streamflowb
QA2337	2.086	2.00	streamflowb
QA2338	2.086	2.00	streamflowb
QA2339	1.962	2.00	streamflowb
QA2340	1.962	2.00	streamflowb
QA2341	1.962	2.00	streamflowb
QA2342	1.839	2.00	streamflowb
QA2343	1.839	2.00	streamflowb
QA2344	1.839	2.00	streamflowb
QA2345	1.839	2.00	streamflowb
QA2346	1.962	2.00	streamflowb
QA2347	1.716	3.00	streamflowc
QA2348	1.716	3.00	streamflowc
QA2349	1.716	3.00	streamflowc
QA2350	1.631	3.00	streamflowc
QA2351	1.631	3.00	streamflowc
QA2352	1.631	3.00	streamflowc
QA2353	1.631	3.00	streamflowc
QA2354	1.631	3.00	streamflowc
QA2355	1.631	3.00	streamflowc
QA2356	1.546	3.00	streamflowc
QA2357	1.546	3.00	streamflowc
QA2358	1.546	3.00	streamflowc
QA2359	1.546	3.00	streamflowc
QA2360	1.546	3.00	streamflowc
QA2361	1.546	3.00	streamflowc
QA2362	1.716	3.00	streamflowc
QA2363	1.631	3.00	streamflowc
QA2364	1.546	3.00	streamflowc
QA2365	1.461	3.00	streamflowc
QA2366	1.461	3.00	streamflowc
QA2367	1.461	3.00	streamflowc
QA2368	1.376	3.00	streamflowc
QA2369	1.376	3.00	streamflowc
QA2370	1.376	3.00	streamflowc
QA2371	1.376	3.00	streamflowc
QA2372	1.376	3.00	streamflowc
QA2373	1.376	3.00	streamflowc
QA2374	1.376	3.00	streamflowc
QA2375	1.376	3.00	streamflowc
QA2376	1.291	4.00	streamflowd
QA2377	1.291	4.00	streamflowd
QA2378	1.291	4.00	streamflowd
QA2379	1.291	4.00	streamflowd
QA2380	1.291	4.00	streamflowd
QA2381	1.291	4.00	streamflowd
QA2382	1.205	4.00	streamflowd
QA2383	1.205	4.00	streamflowd
QA2384	1.205	4.00	streamflowd
QA2385	1.205	4.00	streamflowd
QA2386	1.205	4.00	streamflowd
QA2387	1.12	4.00	streamflowd
QA2388	1.12	4.00	streamflowd
QA2389	1.12	4.00	streamflowd
QA2390	1.12	4.00	streamflowd
QA2391	1.12	4.00	streamflowd
QA2392	1.12	4.00	streamflowd
QA2393	1.12	4.00	streamflowd
QA2394	1.12	4.00	streamflowd
QA2395	1.12	4.00	streamflowd
QA2396	1.035	5.00	streamflowe
QA2397	1.035	5.00	streamflowe
QA2398	1.035	5.00	streamflowe
QA2399	1.035	5.00	streamflowe
QA2400	1.035	5.00	streamflowe
QA2401	1.12	4.00	streamflowd
QA2402	1.035	5.00	streamflowe
QA2403	1.035	5.00	streamflowe
QA2404	0.95	5.00	streamflowe
QA2405	0.95	5.00	streamflowe
QA2406	0.95	5.00	streamflowe
QA2407	0.95	5.00	streamflowe
QA2408	0.95	5.00	streamflowe
QA2409	0.95	5.00	streamflowe
QA2410	0.95	5.00	streamflowe
QA2411	0.95	5.00	streamflowe
QA2412	0.865	5.00	streamflowe
QA2413	0.865	5.00	streamflowe
QA2414	0.865	5.00	streamflowe
QA2415	0.865	5.00	streamflowe
QA2416	0.769	5.00	streamflowe
QA2417	0.817	5.00	streamflowe
QA2418	0.865	5.00	streamflowe
QA2419	0.865	5.00	streamflowe
QA2420	0.865	5.00	streamflowe
QA2421	0.865	5.00	streamflowe
QA2422	0.817	5.00	streamflowe
QA2423	0.817	5.00	streamflowe
QA2424	0.817	5.00	streamflowe
QA2425	0.817	5.00	streamflowe
QA2426	0.817	5.00	streamflowe
QA2427	0.817	5.00	streamflowe
QA2428	0.865	5.00	streamflowe
QA2429	0.817	5.00	streamflowe
QA2430	0.817	5.00	streamflowe
QA2431	0.817	5.00	streamflowe
QA2432	0.817	5.00	streamflowe
QA2433	0.817	5.00	streamflowe
QA2434	0.817	5.00	streamflowe
QA2435	0.95	5.00	streamflowe
QA2436	0.769	5.00	streamflowe
QA2437	0.769	5.00	streamflowe
QA2438	0.769	5.00	streamflowe
QA2439	0.769	5.00	streamflowe
QA2440	0.769	5.00	streamflowe
QA2441	0.769	5.00	streamflowe
QA2442	0.769	5.00	streamflowe
QA2443	0.769	5.00	streamflowe
QA2444	0.817	5.00	streamflowe
QA2445	0.769	5.00	streamflowe
QA2446	0.769	5.00	streamflowe
QA2447	0.769	5.00	streamflowe
QA2448	0.769	5.00	streamflowe
QA2449	0.721	5.00	streamflowe
QA2450	0.721	5.00	streamflowe
QA2451	0.721	5.00	streamflowe
QA2452	0.721	5.00	streamflowe
QA2453	0.721	5.00	streamflowe
QA2454	0.721	5.00	streamflowe
QA2455	0.721	5.00	streamflowe
QA2456	0.721	5.00	streamflowe
QA2457	0.721	5.00	streamflowe
QA2458	0.721	5.00	streamflowe
QA2459	0.721	5.00	streamflowe
QA2460	0.721	5.00	streamflowe
QA2461	0.865	5.00	streamflowe
QA2462	0.769	5.00	streamflowe
QA2463	0.769	5.00	streamflowe
QA2464	0.817	5.00	streamflowe
QA2465	0.769	5.00	streamflowe
QA2466	0.811	5.00	streamflowe
QA2467	0.811	5.00	streamflowe
QA2468	0.811	5.00	streamflowe
QA2469	0.811	5.00	streamflowe
QA2470	0.811	5.00	streamflowe
QA2471	0.811	5.00	streamflowe
QA2472	0.811	5.00	streamflowe
QA2473	0.762	5.00	streamflowe
QA2474	0.762	5.00	streamflowe
QA2475	0.762	5.00	streamflowe
QA2476	0.811	5.00	streamflowe
QA2477	0.86	5.00	streamflowe
QA2478	0.86	5.00	streamflowe
QA2479	0.811	5.00	streamflowe
QA2480	0.86	5.00	streamflowe
QA2481	0.811	5.00	streamflowe
QA2482	0.811	5.00	streamflowe
QA2483	0.811	5.00	streamflowe
QA2484	0.86	5.00	streamflowe
QA2485	0.909	5.00	streamflowe
QA2486	0.958	5.00	streamflowe
QA2487	1.042	5.00	streamflowe
QA2488	0.909	5.00	streamflowe
QA2489	0.86	5.00	streamflowe
QA2490	0.86	5.00	streamflowe
QA2491	0.909	5.00	streamflowe
QA2492	0.958	5.00	streamflowe
QA2493	0.958	5.00	streamflowe
QA2494	0.958	5.00	streamflowe
QA2495	0.909	5.00	streamflowe
QA2496	0.958	5.00	streamflowe
QA2497	0.909	5.00	streamflowe
QA2498	0.909	5.00	streamflowe
QA2499	0.909	5.00	streamflowe
QA2500	2.048	2.00	streamflowb
QA2501	6.473	1.00	streamflowa
QA2502	3.309	1.00	streamflowa
QA2503	2.172	2.00	streamflowb
QA2504	1.925	2.00	streamflowb
QA2505	4.259	1.00	streamflowa
QA2506	7.736	1.00	streamflowa
QA2507	6.317	1.00	streamflowa
QA2508	5.414	1.00	streamflowa
QA2509	4.124	1.00	streamflowa
QA2510	3.445	1.00	streamflowa
QA2511	3.038	1.00	streamflowa
QA2512	2.667	2.00	streamflowb
QA2513	2.543	2.00	streamflowb
QA2514	2.42	2.00	streamflowb
QA2515	2.172	2.00	streamflowb
QA2516	2.048	2.00	streamflowb
QA2517	2.048	2.00	streamflowb
QA2518	1.925	2.00	streamflowb
QA2519	1.801	2.00	streamflowb
QA2520	1.801	2.00	streamflowb
QA2521	1.717	3.00	streamflowc
QA2522	1.801	2.00	streamflowb
QA2523	1.801	2.00	streamflowb
QA2524	1.801	2.00	streamflowb
QA2525	1.717	3.00	streamflowc
QA2526	1.717	3.00	streamflowc
QA2527	1.717	3.00	streamflowc
QA2528	1.632	3.00	streamflowc
QA2529	1.632	3.00	streamflowc
QA2530	1.632	3.00	streamflowc
QA2531	1.548	3.00	streamflowc
QA2532	1.548	3.00	streamflowc
QA2533	1.548	3.00	streamflowc
QA2534	1.548	3.00	streamflowc
QA2535	1.548	3.00	streamflowc
QA2536	1.464	3.00	streamflowc
QA2537	1.464	3.00	streamflowc
QA2538	1.464	3.00	streamflowc
QA2539	1.464	3.00	streamflowc
QA2540	1.464	3.00	streamflowc
QA2541	1.632	3.00	streamflowc
QA2542	2.791	2.00	streamflowb
QA2543	3.309	1.00	streamflowa
QA2544	3.581	1.00	streamflowa
QA2545	3.038	1.00	streamflowa
QA2546	2.791	2.00	streamflowb
QA2547	2.543	2.00	streamflowb
QA2548	2.42	2.00	streamflowb
QA2549	2.296	2.00	streamflowb
QA2550	2.172	2.00	streamflowb
QA2551	2.172	2.00	streamflowb
QA2552	2.048	2.00	streamflowb
QA2553	2.048	2.00	streamflowb
QA2554	1.925	2.00	streamflowb
QA2555	1.801	2.00	streamflowb
QA2556	1.925	2.00	streamflowb
QA2557	1.801	2.00	streamflowb
QA2558	1.801	2.00	streamflowb
QA2559	1.801	2.00	streamflowb
QA2560	1.717	3.00	streamflowc
QA2561	1.717	3.00	streamflowc
QA2562	1.632	3.00	streamflowc
QA2563	1.632	3.00	streamflowc
QA2564	1.632	3.00	streamflowc
QA2565	1.632	3.00	streamflowc
QA2566	1.548	3.00	streamflowc
QA2567	1.548	3.00	streamflowc
QA2568	1.548	3.00	streamflowc
QA2569	1.548	3.00	streamflowc
QA2570	1.632	3.00	streamflowc
QA2571	1.548	3.00	streamflowc
QA2572	1.548	3.00	streamflowc
QA2573	1.548	3.00	streamflowc
QA2574	1.632	3.00	streamflowc
QA2575	2.791	2.00	streamflowb
QA2576	18.047	1.00	streamflowa
QA2577	14.429	1.00	streamflowa
QA2578	9.409	1.00	streamflowa
QA2579	7.25	1.00	streamflowa
QA2580	6.162	1.00	streamflowa
QA2581	6.006	1.00	streamflowa
QA2582	6.006	1.00	streamflowa
QA2583	5.705	1.00	streamflowa
QA2584	6.006	1.00	streamflowa
QA2585	9.935	1.00	streamflowa
QA2586	9.585	1.00	streamflowa
QA2587	8.067	1.00	streamflowa
QA2588	7.901	1.00	streamflowa
QA2589	8.563	1.00	streamflowa
QA2590	13.448	1.00	streamflowa
QA2591	12.107	1.00	streamflowa
QA2592	9.409	1.00	streamflowa
QA2593	8.397	1.00	streamflowa
QA2594	8.563	1.00	streamflowa
QA2595	7.405	1.00	streamflowa
QA2596	6.628	1.00	streamflowa
QA2597	6.006	1.00	streamflowa
QA2598	5.56	1.00	streamflowa
QA2599	5.414	1.00	streamflowa
QA2600	4.977	1.00	streamflowa
QA2601	4.686	1.00	streamflowa
QA2602	4.541	1.00	streamflowa
QA2603	4.832	1.00	streamflowa
QA2604	4.686	1.00	streamflowa
QA2605	4.686	1.00	streamflowa
QA2606	4.686	1.00	streamflowa
QA2607	4.832	1.00	streamflowa
QA2608	4.832	1.00	streamflowa
QA2609	4.832	1.00	streamflowa
QA2610	6.317	1.00	streamflowa
QA2611	7.25	1.00	streamflowa
QA2612	6.628	1.00	streamflowa
QA2613	5.56	1.00	streamflowa
QA2614	5.123	1.00	streamflowa
QA2615	4.977	1.00	streamflowa
QA2616	4.832	1.00	streamflowa
QA2617	4.686	1.00	streamflowa
QA2618	4.541	1.00	streamflowa
QA2619	4.686	1.00	streamflowa
QA2620	5.269	1.00	streamflowa
QA2621	8.894	1.00	streamflowa
QA2622	13.644	1.00	streamflowa
QA2623	17.413	1.00	streamflowa
QA2624	32.404	1.00	streamflowa
QA2625	34.584	1.00	streamflowa
QA2626	25.511	1.00	streamflowa
QA2627	21.429	1.00	streamflowa
QA2628	18.999	1.00	streamflowa
QA2629	16.355	1.00	streamflowa
QA2630	13.644	1.00	streamflowa
QA2631	11.922	1.00	streamflowa
QA2632	12.663	1.00	streamflowa
QA2633	12.663	1.00	streamflowa
QA2634	16.355	1.00	streamflowa
QA2635	13.448	1.00	streamflowa
QA2636	17.73	1.00	streamflowa
QA2637	14.429	1.00	streamflowa
QA2638	12.478	1.00	streamflowa
QA2639	11.181	1.00	streamflowa
QA2640	10.285	1.00	streamflowa
QA2641	9.585	1.00	streamflowa
QA2642	20.267	1.00	streamflowa
QA2643	57.244	1.00	streamflowa
QA2644	39.961	1.00	streamflowa
QA2645	30.294	1.00	streamflowa
QA2646	57.244	1.00	streamflowa
QA2647	31.876	1.00	streamflowa
QA2648	35.779	1.00	streamflowa
QA2649	28.712	1.00	streamflowa
QA2650	21.429	1.00	streamflowa
QA2651	19.316	1.00	streamflowa
QA2652	18.682	1.00	streamflowa
QA2653	16.849	1.00	streamflowa
QA2654	14.625	1.00	streamflowa
QA2655	14.429	1.00	streamflowa
QA2656	13.84	1.00	streamflowa
QA2657	12.293	1.00	streamflowa
QA2658	11.367	1.00	streamflowa
QA2659	10.285	1.00	streamflowa
QA2660	9.409	1.00	streamflowa
QA2661	8.894	1.00	streamflowa
QA2662	8.232	1.00	streamflowa
QA2663	7.901	1.00	streamflowa
QA2664	7.405	1.00	streamflowa
QA2665	7.094	1.00	streamflowa
QA2666	6.783	1.00	streamflowa
QA2667	6.473	1.00	streamflowa
QA2668	6.317	1.00	streamflowa
QA2669	6.006	1.00	streamflowa
QA2670	5.851	1.00	streamflowa
QA2671	5.705	1.00	streamflowa
QA2672	5.414	1.00	streamflowa
QA2673	5.414	1.00	streamflowa
QA2674	5.851	1.00	streamflowa
QA2675	6.006	1.00	streamflowa
QA2676	6.162	1.00	streamflowa
QA2677	7.57	1.00	streamflowa
QA2678	9.409	1.00	streamflowa
QA2679	10.811	1.00	streamflowa
QA2680	9.935	1.00	streamflowa
QA2681	9.234	1.00	streamflowa
QA2682	8.397	1.00	streamflowa
QA2683	7.57	1.00	streamflowa
QA2684	6.939	1.00	streamflowa
QA2685	6.628	1.00	streamflowa
QA2686	6.317	1.00	streamflowa
QA2687	6.006	1.00	streamflowa
QA2688	5.705	1.00	streamflowa
QA2689	5.414	1.00	streamflowa
QA2690	5.269	1.00	streamflowa
QA2691	5.123	1.00	streamflowa
QA2692	5.269	1.00	streamflowa
QA2693	5.123	1.00	streamflowa
QA2694	5.123	1.00	streamflowa
QA2695	5.705	1.00	streamflowa
QA2696	6.162	1.00	streamflowa
QA2697	5.851	1.00	streamflowa
QA2698	5.56	1.00	streamflowa
QA2699	5.269	1.00	streamflowa
QA2700	4.977	1.00	streamflowa
QA2701	4.832	1.00	streamflowa
QA2702	4.541	1.00	streamflowa
QA2703	4.395	1.00	streamflowa
QA2704	4.541	1.00	streamflowa
QA2705	4.541	1.00	streamflowa
QA2706	4.395	1.00	streamflowa
QA2707	4.259	1.00	streamflowa
QA2708	4.124	1.00	streamflowa
QA2709	3.988	1.00	streamflowa
QA2710	3.852	1.00	streamflowa
QA2711	3.717	1.00	streamflowa
QA2712	3.717	1.00	streamflowa
QA2713	3.717	1.00	streamflowa
QA2714	3.717	1.00	streamflowa
QA2715	3.581	1.00	streamflowa
QA2716	3.581	1.00	streamflowa
QA2717	3.445	1.00	streamflowa
QA2718	3.445	1.00	streamflowa
QA2719	3.445	1.00	streamflowa
QA2720	3.309	1.00	streamflowa
QA2721	3.309	1.00	streamflowa
QA2722	3.174	1.00	streamflowa
QA2723	3.174	1.00	streamflowa
QA2724	3.174	1.00	streamflowa
QA2725	3.038	1.00	streamflowa
QA2726	3.038	1.00	streamflowa
QA2727	3.038	1.00	streamflowa
QA2728	3.038	1.00	streamflowa
QA2729	3.038	1.00	streamflowa
QA2730	3.038	1.00	streamflowa
QA2731	3.038	1.00	streamflowa
QA2732	2.914	2.00	streamflowb
QA2733	2.914	2.00	streamflowb
QA2734	2.791	2.00	streamflowb
QA2735	2.791	2.00	streamflowb
QA2736	2.791	2.00	streamflowb
QA2737	2.667	2.00	streamflowb
QA2738	2.667	2.00	streamflowb
QA2739	2.543	2.00	streamflowb
QA2740	2.667	2.00	streamflowb
QA2741	2.543	2.00	streamflowb
QA2742	2.42	2.00	streamflowb
QA2743	2.42	2.00	streamflowb
QA2744	2.42	2.00	streamflowb
QA2745	2.42	2.00	streamflowb
QA2746	2.42	2.00	streamflowb
QA2747	2.42	2.00	streamflowb
QA2748	2.543	2.00	streamflowb
QA2749	2.543	2.00	streamflowb
QA2750	2.42	2.00	streamflowb
QA2751	2.42	2.00	streamflowb
QA2752	2.42	2.00	streamflowb
QA2753	2.42	2.00	streamflowb