rout_unit.ele: written by SWAT+ editor v2.1.4 on 2022-11-22 14:57 for SWAT+ rev.60.5.4
      id  name                   obj_typ    obj_id          frac               dlr  
       1  hru0001                    hru         1     1.8744E-1                 0  
       2  hru0002                    hru         2     9.9966E-2                 0  
       3  hru0003                    hru         3     2.0787E-1                 0  
       4  hru0004                    hru         4     1.3169E-1                 0  
       5  hru0005                    hru         5     1.8563E-1                 0  
       6  hru0006                    hru         6     1.6535E-2                 0  
       7  hru0007                    hru         7     9.4488E-3                 0  
       8  hru0008                    hru         8     1.8110E-2                 0  
       9  hru0009                    hru         9     4.1339E-2                 0  
      10  hru0010                    hru        10     2.3622E-2                 0  
      11  hru0011                    hru        11     4.5276E-2                 0  
      12  hru0012                    hru        12     1.2402E-2                 0  
      13  hru0013                    hru        13     7.0866E-3                 0  
      14  hru0014                    hru        14     1.3583E-2                 0  
      15  hru0015                    hru        15     5.6535E-2                 0  
      16  hru0016                    hru        16     1.2301E-1                 0  
      17  hru0017                    hru        17     8.9788E-3                 0  
      18  hru0018                    hru        18     1.3869E-2                 0  
      19  hru0019                    hru        19     2.3830E-3                 0  
      20  hru0020                    hru        20     5.6168E-2                 0  
      21  hru0021                    hru        21     2.4583E-1                 0  
      22  hru0022                    hru        22     9.9580E-2                 0  
      23  hru0023                    hru        23     7.0150E-2                 0  
      24  hru0024                    hru        24     1.0500E-2                 0  
      25  hru0025                    hru        25     1.1972E-2                 0  
      26  hru0026                    hru        26     1.7538E-1                 0  
      27  hru0027                    hru        27     2.6250E-2                 0  
      28  hru0028                    hru        28     2.9929E-2                 0  
      29  hru0029                    hru        29     5.2613E-2                 0  
      30  hru0030                    hru        30     7.8751E-3                 0  
      31  hru0031                    hru        31     8.9788E-3                 0  
      32  hru0032                    hru        32     1.2593E-1                 0  
      33  hru0033                    hru        33     2.2222E-2                 0  
      34  hru0034                    hru        34     4.0741E-1                 0  
      35  hru0035                    hru        35     3.1111E-1                 0  
      36  hru0036                    hru        36     1.3333E-1                 0  
      37  hru0037                    hru        37     8.9705E-2                 0  
      38  hru0038                    hru        38     2.0396E-1                 0  
      39  hru0039                    hru        39     6.0221E-2                 0  
      40  hru0040                    hru        40     1.0673E-1                 0  
      41  hru0041                    hru        41     8.0136E-2                 0  
      42  hru0042                    hru        42     6.2004E-2                 0  
      43  hru0043                    hru        43     4.6054E-2                 0  
      44  hru0044                    hru        44     1.5501E-1                 0  
      45  hru0045                    hru        45     1.1514E-1                 0  
      46  hru0046                    hru        46     4.6503E-2                 0  
      47  hru0047                    hru        47     3.4541E-2                 0  
      48  hru0048                    hru        48     3.3578E-1                 0  
      49  hru0049                    hru        49     1.2523E-1                 0  
      50  hru0050                    hru        50     7.0825E-2                 0  
      51  hru0051                    hru        51     2.0831E-2                 0  
      52  hru0052                    hru        52     5.3352E-2                 0  
      53  hru0053                    hru        53     7.7975E-2                 0  
      54  hru0054                    hru        54     6.1560E-2                 0  
      55  hru0055                    hru        55     5.4720E-2                 0  
      56  hru0056                    hru        56     5.0616E-2                 0  
      57  hru0057                    hru        57     3.4200E-2                 0  
      58  hru0058                    hru        58     2.8728E-2                 0  
      59  hru0059                    hru        59     8.6183E-2                 0  
      60  hru0060                    hru        60     1.0014E-1                 0  
      61  hru0061                    hru        61     5.0577E-2                 0  
      62  hru0062                    hru        62     4.4982E-2                 0  
      63  hru0063                    hru        63     1.7975E-1                 0  
      64  hru0064                    hru        64     1.2477E-1                 0  
      65  hru0065                    hru        65     1.1697E-1                 0  
      66  hru0066                    hru        66     3.0708E-2                 0  
      67  hru0067                    hru        67     1.1587E-2                 0  
      68  hru0068                    hru        68     6.3001E-3                 0  
      69  hru0069                    hru        69     6.8756E-2                 0  
      70  hru0070                    hru        70     2.4644E-2                 0  
      71  hru0071                    hru        71     2.3835E-2                 0  
      72  hru0072                    hru        72     3.1148E-2                 0  
      73  hru0073                    hru        73     5.8551E-2                 0  
      74  hru0074                    hru        74     6.0358E-2                 0  
      75  hru0075                    hru        75     2.8461E-2                 0  
      76  hru0076                    hru        76     3.8462E-2                 0  
      77  hru0077                    hru        77     6.7683E-2                 0  
      78  hru0078                    hru        78     3.9792E-2                 0  
      79  hru0079                    hru        79     4.9833E-2                 0  
      80  hru0080                    hru        80     5.7642E-2                 0  
      81  hru0081                    hru        81     8.0327E-2                 0  
      82  hru0082                    hru        82     4.7229E-2                 0  
      83  hru0083                    hru        83     1.3494E-1                 0  
      84  hru0084                    hru        84     5.2255E-1                 0  
      85  hru0085                    hru        85     1.6754E-1                 0  
      86  hru0086                    hru        86     1.7380E-1                 0  
      87  hru0087                    hru        87     3.9528E-2                 0  
      88  hru0088                    hru        88     2.4873E-2                 0  
      89  hru0089                    hru        89     3.4961E-1                 0  
      90  hru0090                    hru        90     2.4465E-1                 0  
      91  hru0091                    hru        91     7.4359E-2                 0  
      92  hru0092                    hru        92     2.0910E-1                 0  
      93  hru0093                    hru        93     8.4422E-2                 0  
      94  hru0094                    hru        94     2.1749E-1                 0  
      95  hru0095                    hru        95     1.2902E-1                 0  
      96  hru0096                    hru        96     3.5014E-2                 0  
      97  hru0097                    hru        97     1.0005E-1                 0  
      98  hru0098                    hru        98     1.5055E-1                 0  
      99  hru0099                    hru        99     1.6008E-2                 0  
     100  hru0100                    hru       100     7.9815E-2                 0  
     101  hru0101                    hru       101     5.2710E-2                 0  
     102  hru0102                    hru       102     2.9540E-2                 0  
     103  hru0103                    hru       103     6.5453E-2                 0  
     104  hru0104                    hru       104     6.5923E-2                 0  
     105  hru0105                    hru       105     1.0308E-1                 0  
     106  hru0106                    hru       106     3.2685E-2                 0  
     107  hru0107                    hru       107     1.6550E-2                 0  
     108  hru0108                    hru       108     9.7258E-3                 0  
     109  hru0109                    hru       109     8.7979E-2                 0  
     110  hru0110                    hru       110     6.7641E-2                 0  
     111  hru0111                    hru       111     3.1522E-2                 0  
     112  hru0112                    hru       112     2.4563E-2                 0  
     113  hru0113                    hru       113     9.2670E-3                 0  
     114  hru0114                    hru       114     5.9945E-3                 0  
     115  hru0115                    hru       115     4.7398E-2                 0  
     116  hru0116                    hru       116     5.1065E-2                 0  
     117  hru0117                    hru       117     3.6996E-2                 0  
     118  hru0118                    hru       118     2.3074E-2                 0  
     119  hru0119                    hru       119     9.9809E-3                 0  
     120  hru0120                    hru       120     5.5695E-2                 0  
     121  hru0121                    hru       121     6.5848E-3                 0  
     122  hru0122                    hru       122     5.5485E-3                 0  
     123  hru0123                    hru       123     2.0727E-3                 0  
     124  hru0124                    hru       124     1.9085E-2                 0  
     125  hru0125                    hru       125     1.7172E-2                 0  
     126  hru0126                    hru       126     9.0242E-3                 0  
     127  hru0127                    hru       127     1.9754E-3                 0  
     128  hru0128                    hru       128     1.6645E-3                 0  
     129  hru0129                    hru       129     6.2181E-4                 0  
     130  hru0130                    hru       130     5.7254E-3                 0  
     131  hru0131                    hru       131     5.1515E-3                 0  
     132  hru0132                    hru       132     2.7073E-3                 0  
     133  hru0133                    hru       133     2.7760E-1                 0  
     134  hru0134                    hru       134     1.9041E-1                 0  
     135  hru0135                    hru       135     1.8434E-1                 0  
     136  hru0136                    hru       136     2.3058E-1                 0  
     137  hru0137                    hru       137     6.7415E-2                 0  
     138  hru0138                    hru       138     1.8503E-2                 0  
     139  hru0139                    hru       139     3.1163E-2                 0  
     140  hru0140                    hru       140     1.8014E-1                 0  
     141  hru0141                    hru       141     7.3091E-2                 0  
     142  hru0142                    hru       142     3.8204E-2                 0  
     143  hru0143                    hru       143     3.3850E-2                 0  
     144  hru0144                    hru       144     7.9830E-3                 0  
     145  hru0145                    hru       145     6.1687E-3                 0  
     146  hru0146                    hru       146     1.1962E-1                 0  
     147  hru0147                    hru       147     1.0097E-1                 0  
     148  hru0148                    hru       148     3.6711E-2                 0  
     149  hru0149                    hru       149     1.0316E-2                 0  
     150  hru0150                    hru       150     1.4618E-2                 0  
     151  hru0151                    hru       151     2.7992E-3                 0  
     152  hru0152                    hru       152     1.2840E-1                 0  
     153  hru0153                    hru       153     1.0093E-1                 0  
     154  hru0154                    hru       154     8.4444E-2                 0  
     155  hru0155                    hru       155     1.2773E-2                 0  
     156  hru0156                    hru       156     9.1649E-3                 0  
     157  hru0157                    hru       157     1.3353E-2                 0  
     158  hru0158                    hru       158     9.5796E-3                 0  
     159  hru0159                    hru       159     6.8737E-3                 0  
     160  hru0160                    hru       160     1.0015E-2                 0  
     161  hru0161                    hru       161     6.9913E-2                 0  
     162  hru0162                    hru       162     1.0957E-1                 0  
     163  hru0163                    hru       163     3.7555E-1                 0  
     164  hru0164                    hru       164     1.2985E-1                 0  
     165  hru0165                    hru       165     9.1430E-2                 0  
     166  hru0166                    hru       166     3.2701E-2                 0  
     167  hru0167                    hru       167     5.6604E-2                 0  
     168  hru0168                    hru       168     1.0824E-1                 0  
     169  hru0169                    hru       169     2.6150E-2                 0  
     170  hru0170                    hru       170     1.2010E-1                 0  
     171  hru0171                    hru       171     4.1869E-2                 0  
     172  hru0172                    hru       172     9.8073E-2                 0  
     173  hru0173                    hru       173     1.7382E-2                 0  
     174  hru0174                    hru       174     6.9627E-2                 0  
     175  hru0175                    hru       175     2.1628E-2                 0  
     176  hru0176                    hru       176     1.6372E-2                 0  
     177  hru0177                    hru       177     1.0148E-2                 0  
     178  hru0178                    hru       178     1.2391E-2                 0  
     179  hru0179                    hru       179     1.0043E-1                 0  
     180  hru0180                    hru       180     3.5165E-2                 0  
     181  hru0181                    hru       181     1.2068E-2                 0  
     182  hru0182                    hru       182     2.8382E-2                 0  
     183  hru0183                    hru       183     5.5870E-3                 0  
     184  hru0184                    hru       184     1.0578E-1                 0  
     185  hru0185                    hru       185     1.9120E-2                 0  
     186  hru0186                    hru       186     3.2926E-2                 0  
     187  hru0187                    hru       187     1.9219E-2                 0  
     188  hru0188                    hru       188     5.7708E-2                 0  
     189  hru0189                    hru       189     1.0603E-2                 0  
     190  hru0190                    hru       190     2.7162E-2                 0  
     191  hru0191                    hru       191     2.0102E-2                 0  
     192  hru0192                    hru       192     6.7904E-2                 0  
     193  hru0193                    hru       193     5.0255E-2                 0  
     194  hru0194                    hru       194     2.2459E-1                 0  
     195  hru0195                    hru       195     2.2178E-1                 0  
     196  hru0196                    hru       196     1.5057E-1                 0  
     197  hru0197                    hru       197     1.2749E-1                 0  
     198  hru0198                    hru       198     1.0321E-1                 0  
     199  hru0199                    hru       199     1.0722E-1                 0  
     200  hru0200                    hru       200     6.5135E-2                 0  
     201  hru0201                    hru       201     2.8303E-1                 0  
     202  hru0202                    hru       202     1.2129E-1                 0  
     203  hru0203                    hru       203     5.3615E-2                 0  
     204  hru0204                    hru       204     3.6221E-1                 0  
     205  hru0205                    hru       205     8.1169E-2                 0  
     206  hru0206                    hru       206     9.8677E-2                 0  
     207  hru0207                    hru       207     2.3615E-1                 0  
     208  hru0208                    hru       208     3.6589E-1                 0  
     209  hru0209                    hru       209     2.1429E-1                 0  
     210  hru0210                    hru       210     1.0350E-1                 0  
     211  hru0211                    hru       211     3.9359E-2                 0  
     212  hru0212                    hru       212     4.0816E-2                 0  
     213  hru0213                    hru       213     3.1302E-1                 0  
     214  hru0214                    hru       214     1.4673E-1                 0  
     215  hru0215                    hru       215     2.1121E-2                 0  
     216  hru0216                    hru       216     6.0292E-2                 0  
     217  hru0217                    hru       217     9.5046E-3                 0  
     218  hru0218                    hru       218     2.9042E-3                 0  
     219  hru0219                    hru       219     9.1686E-3                 0  
     220  hru0220                    hru       220     2.8322E-3                 0  
     221  hru0221                    hru       221     6.9048E-2                 0  
     222  hru0222                    hru       222     2.5433E-1                 0  
     223  hru0223                    hru       223     7.1794E-2                 0  
     224  hru0224                    hru       224     1.4807E-2                 0  
     225  hru0225                    hru       225     7.6250E-3                 0  
     226  hru0226                    hru       226     1.1105E-2                 0  
     227  hru0227                    hru       227     5.7188E-3                 0  
     228  hru0228                    hru       228     1.4177E-1                 0  
     229  hru0229                    hru       229     8.2428E-2                 0  
     230  hru0230                    hru       230     3.1292E-2                 0  
     231  hru0231                    hru       231     9.2732E-2                 0  
     232  hru0232                    hru       232     7.3047E-2                 0  
     233  hru0233                    hru       233     1.1984E-2                 0  
     234  hru0234                    hru       234     3.4953E-2                 0  
     235  hru0235                    hru       235     1.7310E-2                 0  
     236  hru0236                    hru       236     1.0459E-1                 0  
     237  hru0237                    hru       237     4.4874E-2                 0  
     238  hru0238                    hru       238     1.4314E-2                 0  
     239  hru0239                    hru       239     1.9284E-2                 0  
     240  hru0240                    hru       240     2.7720E-2                 0  
     241  hru0241                    hru       241     8.0559E-2                 0  
     242  hru0242                    hru       242     7.6060E-2                 0  
     243  hru0243                    hru       243     8.0548E-2                 0  
     244  hru0244                    hru       244     9.3056E-3                 0  
     245  hru0245                    hru       245     4.2097E-3                 0  
     246  hru0246                    hru       246     1.1509E-2                 0  
     247  hru0247                    hru       247     1.2992E-2                 0  
     248  hru0248                    hru       248     6.9792E-3                 0  
     249  hru0249                    hru       249     3.1573E-3                 0  
     250  hru0250                    hru       250     8.6317E-3                 0  
     251  hru0251                    hru       251     9.7438E-3                 0  
     252  hru0252                    hru       252     1.8859E-1                 0  
     253  hru0253                    hru       253     5.7312E-2                 0  
     254  hru0254                    hru       254     1.1095E-1                 0  
     255  hru0255                    hru       255     5.9857E-2                 0  
     256  hru0256                    hru       256     8.5595E-2                 0  
     257  hru0257                    hru       257     1.5463E-2                 0  
     258  hru0258                    hru       258     8.7030E-2                 0  
     259  hru0259                    hru       259     9.9211E-2                 0  
     260  hru0260                    hru       260     5.4044E-2                 0  
     261  hru0261                    hru       261     1.5506E-2                 0  
     262  hru0262                    hru       262     9.6554E-3                 0  
     263  hru0263                    hru       263     1.0202E-2                 0  
     264  hru0264                    hru       264     3.8281E-2                 0  
     265  hru0265                    hru       265     3.0135E-2                 0  
     266  hru0266                    hru       266     2.5091E-2                 0  
     267  hru0267                    hru       267     2.8779E-2                 0  
     268  hru0268                    hru       268     1.8425E-2                 0  
     269  hru0269                    hru       269     1.8313E-2                 0  
     270  hru0270                    hru       270     5.9151E-3                 0  
     271  hru0271                    hru       271     5.5168E-3                 0  
     272  hru0272                    hru       272     1.3819E-2                 0  
     273  hru0273                    hru       273     1.3735E-2                 0  
     274  hru0274                    hru       274     4.4363E-3                 0  
     275  hru0275                    hru       275     4.1376E-3                 0  
     276  hru0276                    hru       276     1.0647E-1                 0  
     277  hru0277                    hru       277     8.2014E-2                 0  
     278  hru0278                    hru       278     6.5468E-2                 0  
     279  hru0279                    hru       279     1.2950E-2                 0  
     280  hru0280                    hru       280     1.1511E-2                 0  
     281  hru0281                    hru       281     7.1942E-3                 0  
     282  hru0282                    hru       282     1.4217E-1                 0  
     283  hru0283                    hru       283     1.3841E-1                 0  
     284  hru0284                    hru       284     1.6988E-1                 0  
     285  hru0285                    hru       285     1.0710E-1                 0  
     286  hru0286                    hru       286     6.4029E-2                 0  
     287  hru0287                    hru       287     6.1871E-2                 0  
     288  hru0288                    hru       288     3.0935E-2                 0  
     289  hru0289                    hru       289     4.2956E-2                 0  
     290  hru0290                    hru       290     7.8864E-2                 0  
     291  hru0291                    hru       291     2.1606E-2                 0  
     292  hru0292                    hru       292     1.8420E-2                 0  
     293  hru0293                    hru       293     1.2766E-1                 0  
     294  hru0294                    hru       294     8.4466E-2                 0  
     295  hru0295                    hru       295     1.2066E-1                 0  
     296  hru0296                    hru       296     1.0366E-2                 0  
     297  hru0297                    hru       297     2.8066E-2                 0  
     298  hru0298                    hru       298     1.7693E-2                 0  
     299  hru0299                    hru       299     3.7595E-2                 0  
     300  hru0300                    hru       300     1.5378E-2                 0  
     301  hru0301                    hru       301     1.6685E-1                 0  
     302  hru0302                    hru       302     4.3236E-2                 0  
     303  hru0303                    hru       303     8.7163E-2                 0  
     304  hru0304                    hru       304     1.2455E-2                 0  
     305  hru0305                    hru       305     2.4016E-2                 0  
     306  hru0306                    hru       306     1.3955E-2                 0  
     307  hru0307                    hru       307     3.7637E-3                 0  
     308  hru0308                    hru       308     2.3936E-3                 0  
     309  hru0309                    hru       309     9.3416E-3                 0  
     310  hru0310                    hru       310     1.8012E-2                 0  
     311  hru0311                    hru       311     1.0467E-2                 0  
     312  hru0312                    hru       312     2.8228E-3                 0  
     313  hru0313                    hru       313     1.7952E-3                 0  
     314  hru0314                    hru       314     7.6115E-2                 0  
     315  hru0315                    hru       315     1.1910E-1                 0  
     316  hru0316                    hru       316     1.1373E-1                 0  
     317  hru0317                    hru       317     2.4181E-2                 0  
     318  hru0318                    hru       318     1.7732E-2                 0  
     319  hru0319                    hru       319     1.8270E-2                 0  
     320  hru0320                    hru       320     7.4960E-2                 0  
     321  hru0321                    hru       321     6.6900E-2                 0  
     322  hru0322                    hru       322     6.0451E-2                 0  
     323  hru0323                    hru       323     9.1293E-2                 0  
     324  hru0324                    hru       324     1.3009E-1                 0  
     325  hru0325                    hru       325     6.8880E-2                 0  
     326  hru0326                    hru       326     2.5693E-2                 0  
     327  hru0327                    hru       327     1.8719E-2                 0  
     328  hru0328                    hru       328     2.7493E-2                 0  
     329  hru0329                    hru       329     9.7797E-3                 0  
     330  hru0330                    hru       330     1.4078E-2                 0  
     331  hru0331                    hru       331     1.4078E-2                 0  
     332  hru0332                    hru       332     7.3348E-3                 0  
     333  hru0333                    hru       333     1.0559E-2                 0  
     334  hru0334                    hru       334     1.0559E-2                 0  
     335  hru0335                    hru       335     1.2061E-1                 0  
     336  hru0336                    hru       336     1.7940E-1                 0  
     337  hru0337                    hru       337     1.5135E-1                 0  
     338  hru0338                    hru       338     2.2240E-1                 0  
     339  hru0339                    hru       339     1.9349E-1                 0  
     340  hru0340                    hru       340     4.4138E-2                 0  
     341  hru0341                    hru       341     1.7094E-2                 0  
     342  hru0342                    hru       342     3.3543E-2                 0  
     343  hru0343                    hru       343     1.2821E-2                 0  
     344  hru0344                    hru       344     2.5158E-2                 0  
     345  hru0345                    hru       345     6.6000E-2                 0  
     346  hru0346                    hru       346     9.0316E-2                 0  
     347  hru0347                    hru       347     4.2347E-2                 0  
     348  hru0348                    hru       348     1.5680E-1                 0  
     349  hru0349                    hru       349     3.3619E-1                 0  
     350  hru0350                    hru       350     6.3169E-2                 0  