rout_unit.def: written by SWAT+ editor v2.1.4 on 2022-11-22 14:57 for SWAT+ rev.60.5.4
      id              name  elem_tot  elements  
       1           rtu0011         2      4939     -4940  
       2           rtu0012         2      4941     -4947  
       3           rtu0021         2      4926     -4929  
       4           rtu0022         2      4930     -4938  
       5           rtu0031         2      2350     -2369  
       6           rtu0032         2      2370     -2383  
       7           rtu0061         2      2337     -2338  
       8           rtu0062         2      2339     -2349  
       9           rtu0071         2      2300     -2306  
      10           rtu0072         2      2307     -2336  
      11           rtu0081         2      2283     -2299  
      12           rtu0082         2      2254     -2282  
      13           rtu0131         2      2225     -2237  
      14           rtu0132         2      2238     -2253  
      15           rtu0151         2      1873     -1885  
      16           rtu0152         2      1886     -1906  
      17           rtu0161         2      1831     -1841  
      18           rtu0162         2      1842     -1872  
      19           rtu0171         2      1814     -1825  
      20           rtu0172         2      1826     -1830  
      21           rtu0181         2      1778     -1789  
      22           rtu0182         2      1790     -1813  
      23           rtu0191         2      1730     -1753  
      24           rtu0192         2      1754     -1777  
      25           rtu0211         2      1578     -1594  
      26           rtu0212         2      1595     -1603  
      27           rtu0221         2      1534     -1550  
      28           rtu0222         2      1551     -1577  
      29           rtu0231         2      4416     -4436  
      30           rtu0232         2      4437     -4446  
      31           rtu0241         2      1498     -1521  
      32           rtu0242         2      1522     -1533  
      33           rtu0261         2      4405     -4407  
      34           rtu0262         2      4408     -4415  
      35           rtu0272         2      4393     -4404  
      36           rtu0281         2      1438     -1449  
      37           rtu0282         2      1450     -1473  
      38           rtu0291         2      1403     -1411  
      39           rtu0292         2      1412     -1437  
      40           rtu0302         2      4366     -4392  
      41           rtu0311         2      1375     -1392  
      42           rtu0312         2      1393     -1402  
      43           rtu0321         2      3777     -3782  
      44           rtu0322         2      3783     -3796  
      45           rtu0331         2      3765     -3776  
      46           rtu0332         2      3757     -3764  
      47           rtu0341         2      1337     -1345  
      48           rtu0342         2      1346     -1374  
      49           rtu0351         2       739      -750  
      50           rtu0352         2       751      -755  
      51           rtu0371         2      2534     -2557  
      52           rtu0372         2      2558     -2569  
      53           rtu0381         2       712      -726  
      54           rtu0382         2       727      -738  
      55           rtu0401         2      3738     -3745  
      56           rtu0402         2      3746     -3756  
      57           rtu0411         2      4007     -4012  
      58           rtu0412         2      4013     -4020  
      59           rtu0421         2       929      -944  
      60           rtu0422         2       945      -956  
      61           rtu0431         2       585      -588  
      62           rtu0432         2       589      -608  
      63           rtu0441         2       547      -550  
      64           rtu0442         2       551      -584  
      65           rtu0451         2      3998     -4002  
      66           rtu0452         2      4003     -4006  
      67           rtu0461         2      3962     -3971  
      68           rtu0462         2      3972     -3997  
      69           rtu0471         2       512      -518  
      70           rtu0472         2       519      -546  
      71           rtu0481         2      3939     -3947  
      72           rtu0482         2      3948     -3961  
      73           rtu0491         2      2510     -2521  
      74           rtu0492         2      2522     -2533  
      75           rtu0501         2       487      -499  
      76           rtu0502         2       500      -511  
      77           rtu0511         2      3501     -3518  
      78           rtu0512         2      3519     -3547  
      79           rtu0521         2      3018     -3029  
      80           rtu0522         2      3030     -3047  
      81           rtu0531         2       443      -457  
      82           rtu0532         2       458      -486  
      83           rtu0542         2      4653     -4656  
      84           rtu0551         2      3459     -3474  
      85           rtu0552         2      3475     -3500  
      86           rtu0571         2      4332     -4344  
      87           rtu0572         2      4345     -4353  
      88           rtu0581         2      3331     -3347  
      89           rtu0582         2      3348     -3355  
      90           rtu0592         2      4645     -4652  
      91           rtu0601         2       405      -417  
      92           rtu0602         2       418      -442  
      93           rtu0611         2      5032     -5034  
      94           rtu0612         2      5026     -5031  
      95           rtu0621         2      1193     -1203  
      96           rtu0622         2      1204     -1229  
      97           rtu0631         2      1171     -1184  
      98           rtu0632         2      1185     -1192  
      99           rtu0651         2      4293     -4313  
     100           rtu0652         2      4314     -4331  
     101           rtu0661         2      5010     -5021  
     102           rtu0662         2      5022     -5025  
     103           rtu0671         2      2985     -2993  
     104           rtu0672         2      2994     -3017  
     105           rtu0681         2      3305     -3310  
     106           rtu0682         2      3311     -3330  
     107           rtu0691         2      3574     -3593  
     108           rtu0692         2      3594     -3614  
     109           rtu0711         2      3263     -3280  
     110           rtu0712         2      3281     -3304  
     111           rtu0721         2      3226     -3237  
     112           rtu0722         2      3238     -3262  
     113           rtu0731         2      1150     -1161  
     114           rtu0732         2      1162     -1170  
     115           rtu0741         2      4252     -4283  
     116           rtu0742         2      4284     -4292  
     117           rtu0751         2      3548     -3559  
     118           rtu0752         2      3560     -3573  
     119           rtu0761         1      4999  
     120           rtu0762         2      5000     -5009  
     121           rtu0771         2      4890     -4913  
     122           rtu0772         2      4914     -4925  
     123           rtu0781         2      3190     -3201  
     124           rtu0782         2      3202     -3225  
     125           rtu0791         2      4974     -4983  
     126           rtu0792         2      4984     -4998  
     127           rtu0801         2      1131     -1138  
     128           rtu0802         2      1139     -1149  
     129           rtu0811         2      4056     -4067  
     130           rtu0812         2      4068     -4079  
     131           rtu0821         2      4447     -4458  
     132           rtu0822         2      4459     -4462  
     133           rtu0841         2      5449     -5451  
     134           rtu0842         2      5452     -5463  
     135           rtu0851         2      5428     -5437  
     136           rtu0852         2      5438     -5448  
     137           rtu0861         2      4871     -4880  
     138           rtu0862         2      4881     -4889  
     139           rtu0871         2       910      -918  
     140           rtu0872         2       919      -928  
     141           rtu0881         2      4620     -4627  
     142           rtu0882         2      4628     -4632  
     143           rtu0891         2      4028     -4039  
     144           rtu0892         2      4040     -4055  
     145           rtu0901         2      4850     -4859  
     146           rtu0902         2      4860     -4870  
     147           rtu0921         2      2748     -2771  
     148           rtu0922         2      2772     -2778  
     149           rtu0931         2      1062     -1096  
     150           rtu0932         2      1097     -1130  
     151           rtu0941         2      4607     -4610  
     152           rtu0942         2      4611     -4619  
     153           rtu0951         2      2706     -2725  
     154           rtu0952         2      2726     -2747  
     155           rtu0961         2       885      -896  
     156           rtu0962         2       897      -909  
     157           rtu0971         2      1037     -1045  
     158           rtu0972         2      1046     -1061  
     159           rtu0981         2      4832     -4839  
     160           rtu0982         2      4840     -4849  
     161           rtu1001         2      4208     -4231  
     162           rtu1002         2      4232     -4251  
     163           rtu1011         2       839      -864  
     164           rtu1012         2       865      -884  
     165           rtu1021         2      2875     -2898  
     166           rtu1022         2      2899     -2922  
     167           rtu1031         2      5408     -5410  
     168           rtu1032         2      5411     -5427  
     169           rtu1051         2      5251     -5253  
     170           rtu1052         2      5254     -5265  
     171           rtu1061         2      4578     -4581  
     172           rtu1062         2      4582     -4606  
     173           rtu1071         2      3157     -3165  
     174           rtu1072         2      3166     -3189  
     175           rtu1081         2      5234     -5236  
     176           rtu1082         2      5237     -5250  
     177           rtu1091         2      1003     -1019  
     178           rtu1092         2      1020     -1036  
     179           rtu1111         2      3893     -3907  
     180           rtu1112         2      3908     -3922  
     181           rtu1121         2      4771     -4776  
     182           rtu1122         2      4777     -4781  
     183           rtu1131         2      5364     -5378  
     184           rtu1132         2      5379     -5407  
     185           rtu1151         2      3727     -3730  
     186           rtu1152         2      3731     -3737  
     187           rtu1161         2       314      -334  
     188           rtu1162         2       335      -344  
     189           rtu1171         2      1987     -2003  
     190           rtu1172         2      2004     -2032  
     191           rtu1181         2       161      -169  
     192           rtu1182         2       170      -193  
     193           rtu1191         2       994      -998  
     194           rtu1192         2       999     -1002  
     195           rtu1201         2      5344     -5351  
     196           rtu1202         2      5352     -5363  
     197           rtu1221         2      4562     -4563  
     198           rtu1222         2      4564     -4577  
     199           rtu1231         2       983      -986  
     200           rtu1232         2       987      -993  
     201           rtu1241         2       133      -139  
     202           rtu1242         2       140      -160  
     203           rtu1271         2      5223     -5225  
     204           rtu1272         2      5226     -5233  
     205           rtu1281         2      4761     -4762  
     206           rtu1282         2      4763     -4770  
     207           rtu1291         2      4555     -4556  
     208           rtu1292         2      4557     -4561  
     209           rtu1311         2      2192     -2195  
     210           rtu1312         2      2196     -2224  
     211           rtu1331         2      4182     -4205  
     212           rtu1332         2      4206     -4207  
     213           rtu1341         2      2475     -2483  
     214           rtu1342         2      2484     -2509  
     215           rtu1351         2      3856     -3878  
     216           rtu1352         2      3879     -3892  
     217           rtu1361         2       276      -288  
     218           rtu1362         2       289      -313  
     219           rtu1391         2      2659     -2672  
     220           rtu1392         2      2673     -2705  
     221           rtu1411         2      5201     -5208  
     222           rtu1412         2      5209     -5222  
     223           rtu1421         2      3119     -3126  
     224           rtu1422         2      3127     -3156  
     225           rtu1431         2      3720     -3721  
     226           rtu1432         2      3722     -3726  
     227           rtu1441         2       387      -392  
     228           rtu1442         2       393      -404  
     229           rtu1471         2      4729     -4731  
     230           rtu1472         2      4732     -4760  
     231           rtu1481         2      3090     -3106  
     232           rtu1482         2      3107     -3118  
     233           rtu1521         2        91       -98  
     234           rtu1522         2        99      -132  
     235           rtu1531         2      2154     -2161  
     236           rtu1532         2      2162     -2191  
     237           rtu1551         2      3420     -3430  
     238           rtu1552         2      3431     -3458  
     239           rtu1561         2      1682     -1705  
     240           rtu1562         2      1706     -1729  
     241           rtu1571         2      5165     -5166  
     242           rtu1572         2      5167     -5200  
     243           rtu1581         2        77       -84  
     244           rtu1582         2        85       -90  
     245           rtu1591         2      4712     -4719  
     246           rtu1592         2      4720     -4728  
     247           rtu1621         2      5314     -5317  
     248           rtu1622         2      5318     -5343  
     249           rtu1661         1      5279  
     250           rtu1662         2      5280     -5313  
     251           rtu1681         2      5266     -5268  
     252           rtu1682         2      5269     -5278  
     253           rtu1691         2      4354     -4361  
     254           rtu1692         2      4362     -4365  
     255           rtu1701         2      4963     -4965  
     256           rtu1702         2      4966     -4973  
     257           rtu1711         2      5123     -5129  
     258           rtu1712         2      5130     -5164  
     259           rtu1731         2      5072     -5087  
     260           rtu1732         2      5088     -5122  
     261           rtu1751         2      5058     -5060  
     262           rtu1752         2      5061     -5071  
     263           rtu1761         2      5041     -5055  
     264           rtu1762         2      5056     -5057  
     265           rtu1771         1      5035  
     266           rtu1772         2      5036     -5040  
     267           rtu1781         2      4948     -4951  
     268           rtu1782         2      4952     -4962  
     269           rtu1801         2      4529     -4530  
     270           rtu1802         2      4531     -4554  
     271           rtu1821         2      4696     -4701  
     272           rtu1822         2      4702     -4711  
     273           rtu1841         2      4685     -4693  
     274           rtu1842         2      4694     -4695  
     275           rtu1851         2      4176     -4178  
     276           rtu1852         2      4179     -4181  
     277           rtu1861         2      4021     -4024  
     278           rtu1862         2      4025     -4027  
     279           rtu1871         2      4782     -4815  
     280           rtu1872         2      4816     -4831  
     281           rtu1881         2      4130     -4151  
     282           rtu1882         2      4152     -4175  
     283           rtu1891         2      4493     -4500  
     284           rtu1892         2      4501     -4528  
     285           rtu1901         2      4673     -4679  
     286           rtu1902         2      4680     -4684  
     287           rtu1911         2      4657     -4661  
     288           rtu1912         2      4662     -4672  
     289           rtu1921         2      4471     -4478  
     290           rtu1922         2      4479     -4492  
     291           rtu1941         2      4633     -4636  
     292           rtu1942         2      4637     -4644  
     293           rtu1951         2      4463     -4468  
     294           rtu1952         2      4469     -4470  
     295           rtu1971         2      3708     -3709  
     296           rtu1972         2      3710     -3719  
     297           rtu1991         2      2135     -2136  
     298           rtu1992         2      2137     -2153  
     299           rtu2011         2      4094     -4105  
     300           rtu2012         2      4106     -4129  
     301           rtu2021         2      4080     -4083  
     302           rtu2022         2      4084     -4093  
     303           rtu2031         2      3829     -3843  
     304           rtu2032         2      3844     -3855  
     305           rtu2041         2      3923     -3926  
     306           rtu2042         2      3927     -3938  
     307           rtu2051         2      3815     -3825  
     308           rtu2052         2      3826     -3828  
     309           rtu2101         2      3797     -3799  
     310           rtu2102         2      3800     -3814  
     311           rtu2111         2      3684     -3685  
     312           rtu2112         2      3686     -3707  
     313           rtu2141         2      2111     -2118  
     314           rtu2142         2      2119     -2134  
     315           rtu2181         2      3655     -3656  
     316           rtu2182         2      3657     -3683  
     317           rtu2191         2       974      -975  
     318           rtu2192         2       976      -982  
     319           rtu2211         2      2842     -2858  
     320           rtu2212         2      2859     -2874  
     321           rtu2271         2      3615     -3624  
     322           rtu2272         2      3625     -3654  
     323           rtu2291         2       957      -960  
     324           rtu2292         2       961      -973  
     325           rtu2321         2      3384     -3386  
     326           rtu2322         2      3387     -3419  
     327           rtu2331         2      2070     -2086  
     328           rtu2332         2      2087     -2110  
     329           rtu2351         2      3356     -3359  
     330           rtu2352         2      3360     -3383  
     331           rtu2381         2      2033     -2038  
     332           rtu2382         2      2039     -2069  
     333           rtu2391         2      3048     -3069  
     334           rtu2392         2      3070     -3089  
     335           rtu2401         2      2923     -2954  
     336           rtu2402         2      2955     -2984  
     337           rtu2431         2      2779     -2807  
     338           rtu2432         2      2808     -2841  
     339           rtu2441         2      2624     -2630  
     340           rtu2442         2      2631     -2658  
     341           rtu2451         2      2579     -2599  
     342           rtu2452         2      2600     -2623  
     343           rtu2461         2      2417     -2444  
     344           rtu2462         2      2445     -2474  
     345           rtu2471         2      2570     -2577  
     346           rtu2472         1      2578  
     347           rtu2481         2      1632     -1654  
     348           rtu2482         2      1655     -1681  
     349           rtu2501         2      1311     -1320  
     350           rtu2502         2      1321     -1336  
     351           rtu2521         2      1945     -1951  
     352           rtu2522         2      1952     -1986  
     353           rtu2571         2      2384     -2387  
     354           rtu2572         2      2388     -2416  
     355           rtu2591         2      1907     -1914  
     356           rtu2592         2      1915     -1944  
     357           rtu2601         2      1474     -1489  
     358           rtu2602         2      1490     -1497  
     359           rtu2621         2      1604     -1607  
     360           rtu2622         2      1608     -1631  
     361           rtu2661         2       686      -703  
     362           rtu2662         2       704      -711  
     363           rtu2701         2      1269     -1283  
     364           rtu2702         2      1284     -1310  
     365           rtu2741         2      1230     -1238  
     366           rtu2742         2      1239     -1268  
     367           rtu2751         2       371      -376  
     368           rtu2752         2       377      -386  
     369           rtu2771         2       805      -816  
     370           rtu2772         2       817      -838  
     371           rtu2821         2       756      -776  
     372           rtu2822         2       777      -804  
     373           rtu2831         2       645      -656  
     374           rtu2832         2       657      -685  
     375           rtu2841         2       345      -356  
     376           rtu2842         2       357      -370  
     377           rtu2851         2        48       -59  
     378           rtu2852         2        60       -76  
     379           rtu2861         2       228      -251  
     380           rtu2862         2       252      -275  
     381           rtu2871         2       609      -620  
     382           rtu2872         2       621      -644  
     383           rtu2911         2       207      -212  
     384           rtu2912         2       213      -227  
     385           rtu2921         2       194      -200  
     386           rtu2922         2       201      -206  
     387           rtu2931         2        32       -36  
     388           rtu2932         2        37       -47  
     389           rtu2941         2         1       -14  
     390           rtu2942         2        15       -31  
