soil_plant.ini: written by SWAT+ editor v2.1.4 on 2022-11-22 14:57 for SWAT+ rev.60.5.4
name                   sw_frac         nutrients              pest              path              hmet              salt  
soilplant1             0.00000          soilnut1              null              null              null              null  
