soils.sol: written by SWAT+ editor v2.1.4 on 2022-11-22 14:57 for SWAT+ rev.60.5.4
name nly hyd_grp dp_tot anion_excl perc_crk texture dp bd awc soil_k carbon clay silt sand rock alb usle_k ec caco3 ph
1413 6 C 2000 0.5 0.5 WIT_texture
                                  50.00000    1.24868 .3204160 14.61620000 6.312  17.61  39.7  42.7  14.54  0.2157 0.1393  0 0 0
                                  100.00000   1.24875 .0605645 14.16790000 5.715  17.81  39.53 42.66 15.04  0.2157 0.1393  0 0 0
                                  240.6920000 .915246 .2743510 29.13870000 2.951  19.14  38.16 42.7  14.91  0.2161 0.1465  0 0 0
                                  716.5010000 .963000 .0735909 23.97630000 2.127  20.19  36.34 43.47 16.42  0.2164 0.1545  0 0 0
                                  828.9870000 1.06332 .1857510 27.83000    1.925  19.86  35.4  44.72 17.83  0.2168 0.1569  0 0 0
                                  2117.840000 1.47138 .0557683 39.61430000 1.795  19.45  34.38 46.2  18.89  0.2172 0.158   0 0 0
1410 6 C 2000 0.5 0.5 WIT_texture
                                  50.00000    1.35600 0.13670  18.58000    2.207  24.03  39.47 36.47 14.31  0.2148 0.1416  0 0 0
                                  100.00000   1.37200 0.13640  17.64000    2.086  24.44  39.34 36.16 14.66  0.2147 0.1422  0 0 0
                                  300.00000   1.45200 0.13390  12.17000    1.19   28.36  37.16 34.53 13.47  0.2136 0.1521  0 0 0
                                  600.00000   1.49600 0.13000  10.12000    0.6484 30.78  35.28 33.97 13.99  0.2131 0.161   0 0 0
                                  1000.00000  1.53000 0.12840  10.24000    0.5005 30.23  34.5  35.25 15.1   0.2135 0.1628  0 0 0
                                  2000.00000  1.53500 0.12700  10.66000    0.3665 29.25  33.62 37.12 16.4   0.2137 0.1637  0 0 0
1374 6 C 2000 0.5 0.5 WIT_texture
                                  50.00000    1.34000 0.13640  15.81000    2.291  25.9   39.94 33.94 13.4   0.2141 0.142   0 0 0
                                  100.00000   1.35700 0.13600  14.32000    2.137  27.1   39.7  33.47 13.84  0.2136 0.1425  0 0 0
                                  300.00000   1.43300 0.13480  11.19000    1.231  29.58  38.16 32.28 13.18  0.2131 0.1523  0 0 0
                                  600.00000   1.48000 0.13110  9.72000     0.697  31.38  36.47 32.2  14.16  0.2128 0.161   0 0 0
                                  1000.00000  1.51700 0.12950  10.03000    0.5435 30.6   35.7  33.75 15.4   0.2134 0.163   0 0 0
                                  2000.00000  1.52200 0.12790  10.45000    0.4102 29.62  34.66 35.72 16.7   0.2137 0.1638  0 0 0
942  6 C 2000 0.5 0.5 WIT_texture
                                  50.00000    1.34200 0.13700  12.73000    2.256  29.2   40.16 30.7  11.51  0.2125 0.1403  0 0 0
                                  100.00000   1.35600 0.13680  12.24000    2.172  29.56  40.03 30.44 11.91  0.2124 0.1409  0 0 0
                                  300.00000   1.43750 0.13550  9.60000     1.32   32.2   38.34 29.48 10.54  0.2117 0.1508  0 0 0
                                  600.00000   1.47700 0.13180  8.39000     0.783  34.3   36.56 29.12 10.945 0.2113 0.1599  0 0 0
                                  1000.00000  1.51300 0.13020  8.55000     0.6567 33.8   35.94 30.25 11.836 0.2118 0.1614  0 0 0
                                  2000.00000  1.51700 0.12850  8.87500     0.5215 32.78  35.16 32.06 13.016 0.2124 0.162   0 0 0
1881 6 B 2000 0.5 0.5 WIT_texture
                                  50          1.153   0.154    52.6        5.86   13.64  33.12 53.25 13.38  0.2169 0.1382  0 0 0
                                  100         1.222   0.1532   50.28       5.566  13.86  33    53.16 13.78  0.2168 0.1381  0 0 0
                                  300         1.336   0.143    42.1        3      16.39  32.2  51.38 12.83  0.2174 0.1445  0 0 0
                                  600         1.426   0.1383   34.97       2.287  17.88  30.83 51.28 13.4   0.2172 0.1516  0 0 0
                                  1000        1.471   0.1373   34.16       2.092  17.53  30.23 52.22 14.78  0.2177 0.154   0 0 0
                                  2000        1.484   0.137    35.7        1.945  16.9   29.52 53.53 15.81  0.2183 0.1556  0 0 0
1845 6 B 2000 0.5 0.5 WIT_texture
                                  50          1.05    0.1594   54.03       7.645  12.84  34.75 52.47 12.984 0.2163 0.1394  0 0 0
                                  100         1.152   0.1578   49.16       7.168  13.59  34.78 51.56 13.4   0.2161 0.1389  0 0 0
                                  300         1.269   0.149    45.97       3.756  14.89  33.88 51.2  12.9   0.2169 0.1433  0 0 0
                                  600         1.371   0.1439   41.16       2.973  15.72  32.5  51.78 13.73  0.2173 0.1488  0 0 0
                                  1000        1.418   0.1428   40.4        2.777  15.445 31.88 52.66 15.09  0.2178 0.1506  0 0 0
                                  2000        1.436   0.142    41.44       2.648  15.07  31.12 53.78 16.02  0.2183 0.1521  0 0 0
1884 6 B 2000 0.5 0.5 WIT_texture
                                  50          0.9756  0.1735   75.44       9.766  9.21   31.02 59.75 11.24  0.2156 0.138   0 0 0
                                  100         1.108   0.1716   71.3        9.28   9.27   30.88 59.84 11.77  0.2155 0.1378  0 0 0
                                  300         1.241   0.1611   71.1        4.953  9.664  30.08 60.25 11.21  0.2172 0.14    0 0 0
                                  600         1.365   0.156    66.1        4.07   10.2   29.22 60.56 12.07  0.2183 0.1425  0 0 0
                                  1000        1.427   0.1549   65.4        3.826  10.15  28.88 60.94 13.25  0.2189 0.1434  0 0 0
                                  2000        1.448   0.154    66.6        3.557  10.03  28.23 61.72 14.1   0.2195 0.1443  0 0 0
1416 6 B 2000 0.5 0.5 WIT_texture
                                  50          0.798   0.1694   58.78       11.81  10.555 38.38 51.06 14.75  0.2157 0.1425  0 0 0
                                  100         0.958   0.1678   56.7        10.46  10.48  38.06 51.44 15.3   0.2161 0.1425  0 0 0
                                  300         1.096   0.161    59.88       5.156  10.516 36.1  53.44 15.98  0.2167 0.143   0 0 0
                                  600         1.2295  0.1532   58.78       4.01   10.64  34.38 54.97 18.5   0.2183 0.1451  0 0 0
                                  1000        1.285   0.1519   58.66       3.775  10.46  33.88 55.66 20.05  0.2188 0.1465  0 0 0
                                  2000        1.313   0.1501   59.47       3.54   10.49  32.78 56.72 20.88  0.2194 0.1472  0 0 0
1377 6 C 2000 0.5 0.5 WIT_texture
                                  50          1.27    0.1375   18.73       2.896  25.89  38.62 35.34 10.61  0.2139 0.1389  0 0 0
                                  100         1.29    0.137    17.17       2.777  27.02  38.44 34.94 11.03  0.2134 0.1385  0 0 0
                                  300         1.371   0.1368   16.27       1.853  25.86  38.38 35.53 9.92   0.2144 0.1498  0 0 0
                                  600         1.41    0.1342   14.96       1.324  26.92  36.66 36.44 10.41  0.2144 0.1567  0 0 0
                                  1000        1.445   0.1333   15.3        1.219  26.28  35.94 37.78 11.34  0.2146 0.1582  0 0 0
                                  2000        1.458   0.1322   15.97       1.101  25.5   34.9  39.6  12.266 0.215  0.1593  0 0 0
1406 6 C 2000 0.5 0.5 WIT_texture
                                  50          1.332   0.1406   31.69       3.45   21.78  29.4  48.8  12.56  0.2153 0.1422  0 0 0
                                  100         1.365   0.1406   30.58       3.252  22.17  29.27 48.56 13     0.2151 0.1422  0 0 0
                                  300         1.435   0.1342   24.17       2.127  25.47  28    47.53 11.914 0.2136 0.1455  0 0 0
                                  600         1.467   0.1321   19.81       1.645  26.53  26.72 46.78 12.12  0.2134 0.1494  0 0 0
                                  1000        1.495   0.1321   19.53       1.492  25.84  26.48 47.7  12.695 0.2137 0.1508  0 0 0
                                  2000        1.507   0.132    20.33       1.349  25.02  25.77 49.25 14.086 0.2142 0.1517  0 0 0
1409 6 C 2000 0.5 0.5 WIT_texture
                                  50          1.258   0.1454   36.9        4.54   21.11  28.66 50.25 11.15  0.2148 0.1381  0 0 0
                                  100         1.301   0.1455   35.75       4.29   21.44  28.56 50.03 11.65  0.2147 0.1377  0 0 0
                                  300         1.383   0.1389   30.58       2.71   23.64  26.72 49.56 10.375 0.2141 0.1417  0 0 0
                                  600         1.425   0.1364   24.72       2.182  24.48  25.8  49.72 10.555 0.214  0.1466  0 0 0
                                  1000        1.463   0.1364   24.28       2.008  23.77  25.48 50.75 11.086 0.2145 0.1478  0 0 0
                                  2000        1.477   0.1364   25.67       1.923  22.89  24.77 52.34 12.125 0.215  0.1489  0 0 0
1361 6 C 2000 0.5 0.5 WIT_texture
                                  50          1.166   0.1522   38.75       6.793  21.8   28.02 50.3  12.1   0.2134 0.1338  0 0 0
                                  100         1.231   0.1527   37.6        6.312  22.42  26.98 50.47 12.61  0.213  0.1327  0 0 0
                                  300         1.314   0.1456   33.03       4.047  23.73  26.33 49.94 11.76  0.2133 0.1364  0 0 0
                                  600         1.364   0.1434   27.16       3.48   24.3   25.47 50.25 12.055 0.2133 0.1398  0 0 0
                                  1000        1.408   0.1432   26.22       3.275  23.86  25.16 51    12.62  0.2136 0.1407  0 0 0
                                  2000        1.422   0.1438   27.33       3.584  23.14  24.53 52.28 13.53  0.214  0.1416  0 0 0
945  6 C 2000 0.5 0.5 WIT_texture
                                  50          1.259   0.1377   17.36       2.975  27.14  38.97 34.16 9.54   0.2133 0.1381  0 0 0
                                  100         1.28    0.1377   16.89       2.88   27.25  38.94 34    9.984  0.2131 0.1382  0 0 0
                                  300         1.364   0.1377   16.2        1.932  25.89  39    34.8  8.57   0.2142 0.1506  0 0 0
                                  600         1.401   0.1344   14.836      1.409  27.08  37.2  35.75 8.84   0.2142 0.1573  0 0 0
                                  1000        1.437   0.1338   15.234      1.32   26.4   36.5  37.1  9.59   0.2146 0.1584  0 0 0
                                  2000        1.449   0.1327   15.96       1.201  25.55  35.53 38.94 10.48  0.215  0.1595  0 0 0
978  6 C 2000 0.5 0.5 WIT_texture
                                  50          1.327   0.1362   14.9        2.4    27     40.34 33.12 11.58  0.2136 0.1404  0 0 0
                                  100         1.342   0.1367   15.586      2.326  26     40.47 33.12 12.016 0.2141 0.1415  0 0 0
                                  300         1.429   0.1356   11.41       1.357  29.34  38.56 32.12 10.445 0.213  0.1516  0 0 0
                                  600         1.475   0.1316   9.73        0.799  31.66  36.6  31.77 10.74  0.2126 0.1609  0 0 0
                                  1000        1.513   0.1299   9.83        0.6646 31.3   35.78 32.94 11.75  0.213  0.1624  0 0 0
                                  2000        1.518   0.1283   10.234      0.5225 30.25  34.88 34.88 12.85  0.2135 0.1631  0 0 0
1257 6 C 2000 0.5 0.5 WIT_texture
                                  50          1.271   0.1414   22.81       2.459  19.45  50.75 29.92 11.375 0.2179 0.1462  0 0 0
                                  100         1.293   0.1417   22.23       2.408  19.64  50.75 29.73 11.74  0.2177 0.1469  0 0 0
                                  300         1.393   0.1437   17.62       1.124  21.92  48.38 29.6  10.73  0.2166 0.1661  0 0 0
                                  600         1.455   0.1398   14.36       0.5566 24.1   45.5  30.38 11.31  0.2163 0.1752  0 0 0
                                  1000        1.494   0.1368   13.89       0.4111 24.22  43.78 31.97 12.55  0.2167 0.1746  0 0 0
                                  2000        1.504   0.1349   14.21       0.2788 23.75  42.6  33.66 13.91  0.2172 0.1748  0 0 0
1256 6 C 2000 0.5 0.5 WIT_texture
                                  50          1.276   0.1542   19.7        2.209  19.22  55.72 25.1  10.984 0.2175 0.1602  0 0 0
                                  100         1.297   0.1543   19.23       2.148  19.4   55.72 24.86 11.266 0.2173 0.1615  0 0 0
                                  300         1.398   0.15     16.06       1.036  21.45  54.03 24.56 10.305 0.2163 0.1824  0 0 0
                                  600         1.459   0.1433   13.29       0.48   23.78  50.84 25.39 10.88  0.216  0.1888  0 0 0
                                  1000        1.496   0.1412   12.58       0.3457 24     49    26.98 11.984 0.2163 0.1858  0 0 0
                                  2000        1.507   0.1393   12.63       0.2302 23.6   47.75 28.66 13.445 0.2169 0.1841  0 0 0
156  6 C 2000 0.5 0.5 WIT_texture
                                  50          1.277   0.1332   11.28       2.09   41.53  27.34 31.2  8.61   0.2073 0.12195 0 0 0
                                  100         1.287   0.1332   10.45       2.107  42.3   26.94 30.78 8.914  0.207  0.1212  0 0 0
                                  300         1.353   0.1311   7.746       1.378  44.7   25.98 29.34 8.44   0.2064 0.1323  0 0 0
                                  600         1.369   0.1287   6.54        0.7905 46.66  25.33 28.02 8.664  0.2062 0.1414  0 0 0
                                  1000        1.395   0.1279   6.188       0.6616 46.44  25.31 28.23 9.164  0.2064 0.1428  0 0 0
                                  2000        1.401   0.1274   6.188       0.603  45.38  25.8  28.84 10.18  0.2069 0.1443  0 0 0
471  6 C 2000 0.5 0.5 WIT_texture
                                  50          1.351   0.1486   9.71        1.659  31.23  51    17.77 9.85   0.2115 0.1685  0 0 0
                                  100         1.362   0.1482   9.55        1.635  31.52  50.9  17.58 10.11  0.2114 0.1693  0 0 0
                                  300         1.442   0.1442   8.11        1.083  33.5   49.3  17.17 8.15   0.2104 0.1836  0 0 0
                                  600         1.475   0.1418   6.844       0.5757 35.66  47.16 17.16 8.266  0.2098 0.192   0 0 0
                                  1000        1.504   0.1399   6.69        0.475  35.25  46.6  18.12 8.76   0.2102 0.1897  0 0 0
                                  2000        1.512   0.1377   6.46        0.3262 34.4   46.1  19.45 9.664  0.2109 0.1874  0 0 0
1877 6 C 2000 0.5 0.5 WIT_texture
                                  50          1.345   0.1445   51.75       2.867  16.12  26.05 57.8  15.91  0.2184 0.1377  0 0 0
                                  100         1.365   0.1437   50.12       2.77   16.52  25.94 57.53 16.17  0.2183 0.1377  0 0 0
                                  300         1.454   0.1342   36.6        1.514  21.23  24.33 54.44 14.85  0.2169 0.1461  0 0 0
                                  600         1.506   0.1316   23.39       0.983  23.94  23.31 52.75 15.02  0.2153 0.1531  0 0 0
                                  1000        1.543   0.1313   22.78       0.8174 23.28  23.08 53.62 16.08  0.2158 0.1556  0 0 0
                                  2000        1.55    0.1318   25.03       0.6836 22.14  22.53 55.3  17.19  0.2166 0.1572  0 0 0
1449 6 B 2000 0.5 0.5 WIT_texture
                                  50          0.989   0.1644   55.03       8.95   12.47  35.9  51.56 12.016 0.2155 0.1383  0 0 0
                                  100         1.103   0.1641   53.84       8.34   12.12  35.4  52.56 12.54  0.2155 0.1385  0 0 0
                                  300         1.229   0.1549   50.4        4.516  13.31  35    51.66 12.03  0.2166 0.1407  0 0 0
                                  600         1.348   0.1489   46.03       3.637  13.78  33.53 52.7  13.13  0.2175 0.1444  0 0 0
                                  1000        1.4     0.1476   45.34       3.43   13.61  32.97 53.4  14.34  0.218  0.1458  0 0 0
                                  2000        1.422   0.1464   46.3        3.266  13.41  32.12 54.47 15.23  0.2185 0.147   0 0 0
