time.sim: written by SWAT+ editor v2.1.4 on 2022-11-22 14:57 for SWAT+ rev.60.5.4
day_start  yrc_start   day_end   yrc_end      step  
         1      2006       365      2019         0
