tmp.cli: Temperature file names - file written by SWAT+ editor 2022-11-22 11:21:39.683281
filename
6951_TMP.tmp
6952_TMP.tmp
6953_TMP.tmp
6955_TMP.tmp
6956_TMP.tmp
6957_TMP.tmp
6958_TMP.tmp
7069_TMP.tmp
7070_TMP.tmp
7071_TMP.tmp
7072_TMP.tmp
7073_TMP.tmp
7074_TMP.tmp
7075_TMP.tmp
7076_TMP.tmp
7077_TMP.tmp
7078_TMP.tmp
7079_TMP.tmp
7188_TMP.tmp
7189_TMP.tmp
7190_TMP.tmp
7191_TMP.tmp
7192_TMP.tmp
7193_TMP.tmp
7194_TMP.tmp
7195_TMP.tmp
7196_TMP.tmp
7197_TMP.tmp
7198_TMP.tmp
7199_TMP.tmp
7304_TMP.tmp
7305_TMP.tmp
7306_TMP.tmp
7307_TMP.tmp
7308_TMP.tmp
7309_TMP.tmp
7310_TMP.tmp
7311_TMP.tmp
7312_TMP.tmp
7313_TMP.tmp
7314_TMP.tmp
7315_TMP.tmp
7416_TMP.tmp
7417_TMP.tmp
7418_TMP.tmp
7419_TMP.tmp
7420_TMP.tmp
7421_TMP.tmp
7422_TMP.tmp
7423_TMP.tmp
7424_TMP.tmp
7425_TMP.tmp
7426_TMP.tmp
7427_TMP.tmp
7428_TMP.tmp
7526_TMP.tmp
7527_TMP.tmp
7528_TMP.tmp
7529_TMP.tmp
7530_TMP.tmp
7531_TMP.tmp
7532_TMP.tmp
7533_TMP.tmp
7534_TMP.tmp
7535_TMP.tmp
7536_TMP.tmp
7537_TMP.tmp
7538_TMP.tmp
7539_TMP.tmp
7540_TMP.tmp
7541_TMP.tmp
7542_TMP.tmp
7543_TMP.tmp
7544_TMP.tmp
7545_TMP.tmp
7636_TMP.tmp
7637_TMP.tmp
7638_TMP.tmp
7639_TMP.tmp
7640_TMP.tmp
7641_TMP.tmp
7642_TMP.tmp
7643_TMP.tmp
7644_TMP.tmp
7645_TMP.tmp
7646_TMP.tmp
7647_TMP.tmp
7648_TMP.tmp
7649_TMP.tmp
7650_TMP.tmp
7651_TMP.tmp
7652_TMP.tmp
7653_TMP.tmp
7654_TMP.tmp
7655_TMP.tmp
7656_TMP.tmp
7747_TMP.tmp
7748_TMP.tmp
7749_TMP.tmp
7750_TMP.tmp
7751_TMP.tmp
7752_TMP.tmp
7753_TMP.tmp
7754_TMP.tmp
7755_TMP.tmp
7756_TMP.tmp
7757_TMP.tmp
7758_TMP.tmp
7759_TMP.tmp
7760_TMP.tmp
7761_TMP.tmp
7762_TMP.tmp
7763_TMP.tmp
7764_TMP.tmp
7765_TMP.tmp
7766_TMP.tmp
7767_TMP.tmp
7863_TMP.tmp
7864_TMP.tmp
7865_TMP.tmp
7866_TMP.tmp
7867_TMP.tmp
7868_TMP.tmp
7869_TMP.tmp
7870_TMP.tmp
7871_TMP.tmp
7872_TMP.tmp
7873_TMP.tmp
7874_TMP.tmp
7875_TMP.tmp
7876_TMP.tmp
7877_TMP.tmp
7878_TMP.tmp
7879_TMP.tmp
7880_TMP.tmp
7881_TMP.tmp
7882_TMP.tmp
7883_TMP.tmp
7979_TMP.tmp
7980_TMP.tmp
7981_TMP.tmp
7982_TMP.tmp
7983_TMP.tmp
7984_TMP.tmp
7985_TMP.tmp
7986_TMP.tmp
7987_TMP.tmp
7988_TMP.tmp
7989_TMP.tmp
7990_TMP.tmp
7991_TMP.tmp
7992_TMP.tmp
7993_TMP.tmp
7994_TMP.tmp
7995_TMP.tmp
7996_TMP.tmp
7997_TMP.tmp
7998_TMP.tmp
7999_TMP.tmp
8000_TMP.tmp
8092_TMP.tmp
8093_TMP.tmp
8094_TMP.tmp
8095_TMP.tmp
8096_TMP.tmp
8097_TMP.tmp
8098_TMP.tmp
8099_TMP.tmp
8100_TMP.tmp
8101_TMP.tmp
8102_TMP.tmp
8103_TMP.tmp
8104_TMP.tmp
8105_TMP.tmp
8106_TMP.tmp
8107_TMP.tmp
8108_TMP.tmp
8109_TMP.tmp
8110_TMP.tmp
8111_TMP.tmp
8112_TMP.tmp
8113_TMP.tmp
8114_TMP.tmp
8202_TMP.tmp
8203_TMP.tmp
8204_TMP.tmp
8205_TMP.tmp
8206_TMP.tmp
8207_TMP.tmp
8208_TMP.tmp
8209_TMP.tmp
8210_TMP.tmp
8211_TMP.tmp
8212_TMP.tmp
8213_TMP.tmp
8214_TMP.tmp
8215_TMP.tmp
8216_TMP.tmp
8217_TMP.tmp
8218_TMP.tmp
8219_TMP.tmp
8220_TMP.tmp
8221_TMP.tmp
8222_TMP.tmp
8223_TMP.tmp
8224_TMP.tmp
8313_TMP.tmp
8314_TMP.tmp
8315_TMP.tmp
8316_TMP.tmp
8317_TMP.tmp
8318_TMP.tmp
8319_TMP.tmp
8320_TMP.tmp
8321_TMP.tmp
8322_TMP.tmp
8323_TMP.tmp
8324_TMP.tmp
8325_TMP.tmp
8326_TMP.tmp
8327_TMP.tmp
8328_TMP.tmp
8329_TMP.tmp
8330_TMP.tmp
8331_TMP.tmp
8332_TMP.tmp
8333_TMP.tmp
8334_TMP.tmp
8335_TMP.tmp
8336_TMP.tmp
8424_TMP.tmp
8425_TMP.tmp
8426_TMP.tmp
8427_TMP.tmp
8428_TMP.tmp
8429_TMP.tmp
8430_TMP.tmp
8431_TMP.tmp
8432_TMP.tmp
8433_TMP.tmp
8434_TMP.tmp
8435_TMP.tmp
8436_TMP.tmp
8437_TMP.tmp
8438_TMP.tmp
8439_TMP.tmp
8440_TMP.tmp
8441_TMP.tmp
8442_TMP.tmp
8443_TMP.tmp
8444_TMP.tmp
8445_TMP.tmp
8446_TMP.tmp
8447_TMP.tmp
8536_TMP.tmp
8537_TMP.tmp
8538_TMP.tmp
8539_TMP.tmp
8540_TMP.tmp
8541_TMP.tmp
8542_TMP.tmp
8543_TMP.tmp
8544_TMP.tmp
8545_TMP.tmp
8546_TMP.tmp
8547_TMP.tmp
8548_TMP.tmp
8549_TMP.tmp
8550_TMP.tmp
8551_TMP.tmp
8552_TMP.tmp
8553_TMP.tmp
8554_TMP.tmp
8555_TMP.tmp
8556_TMP.tmp
8557_TMP.tmp
8558_TMP.tmp
8559_TMP.tmp
8649_TMP.tmp
8650_TMP.tmp
8651_TMP.tmp
8652_TMP.tmp
8653_TMP.tmp
8654_TMP.tmp
8655_TMP.tmp
8656_TMP.tmp
8657_TMP.tmp
8658_TMP.tmp
8659_TMP.tmp
8660_TMP.tmp
8661_TMP.tmp
8662_TMP.tmp
8663_TMP.tmp
8664_TMP.tmp
8665_TMP.tmp
8666_TMP.tmp
8667_TMP.tmp
8668_TMP.tmp
8669_TMP.tmp
8670_TMP.tmp
8762_TMP.tmp
8763_TMP.tmp
8764_TMP.tmp
8765_TMP.tmp
8766_TMP.tmp
8767_TMP.tmp
8768_TMP.tmp
8769_TMP.tmp
8770_TMP.tmp
8771_TMP.tmp
8772_TMP.tmp
8773_TMP.tmp
8774_TMP.tmp
8775_TMP.tmp
8776_TMP.tmp
8777_TMP.tmp
8778_TMP.tmp
8779_TMP.tmp
8780_TMP.tmp
8781_TMP.tmp
8877_TMP.tmp
8878_TMP.tmp
8879_TMP.tmp
8880_TMP.tmp
8881_TMP.tmp
8882_TMP.tmp
8883_TMP.tmp
8884_TMP.tmp
8885_TMP.tmp
8886_TMP.tmp
8887_TMP.tmp
8888_TMP.tmp
8889_TMP.tmp
8890_TMP.tmp
8891_TMP.tmp
8892_TMP.tmp
8893_TMP.tmp
8894_TMP.tmp
8895_TMP.tmp
8896_TMP.tmp
8998_TMP.tmp
8999_TMP.tmp
9000_TMP.tmp
9001_TMP.tmp
9002_TMP.tmp
9003_TMP.tmp
9004_TMP.tmp
9005_TMP.tmp
9006_TMP.tmp
9007_TMP.tmp
9008_TMP.tmp
9009_TMP.tmp
9010_TMP.tmp
9011_TMP.tmp
9012_TMP.tmp
9117_TMP.tmp
9118_TMP.tmp
9119_TMP.tmp
9120_TMP.tmp
9121_TMP.tmp
9122_TMP.tmp
9123_TMP.tmp
9124_TMP.tmp
9125_TMP.tmp
9126_TMP.tmp
9127_TMP.tmp
9128_TMP.tmp
9129_TMP.tmp
9234_TMP.tmp
9235_TMP.tmp
9236_TMP.tmp
9237_TMP.tmp
9238_TMP.tmp
9239_TMP.tmp
9240_TMP.tmp
9241_TMP.tmp
9242_TMP.tmp
9243_TMP.tmp
9348_TMP.tmp
9349_TMP.tmp
9350_TMP.tmp
9351_TMP.tmp
9352_TMP.tmp
9353_TMP.tmp
9354_TMP.tmp
9355_TMP.tmp
9464_TMP.tmp
9465_TMP.tmp
9466_TMP.tmp
9467_TMP.tmp
