ptf #
topography.hyd: written by SWAT+ editor v2.1.4 on 2022-11-22 14:57 for SWAT+ rev.60.5.4
name slp slp_len lat_len dist_cha depos
topohru0001 0.03164 60.00000  #lat_lena1 # 121 0
topohru0002 0.13998 10.00000  #lat_lenb1 # 121 0
topohru0003 0.16546 10.00000  #lat_lenb1 # 121 0
topohru0004 0.41789 10.00000  #lat_lenb1 # 121 0
topohru0005 0.02665 90.00000  90.00000     121 0
topohru0006 0.02823 90.00000  90.00000     121 0
topohru0007 0.17478 10.00000  #lat_lenb1 # 121 0
topohru0008 0.39792 10.00000  #lat_lenb1 # 121 0
topohru0009 0.02823 90.00000  90.00000     121 0
topohru0010 0.17478 10.00000  #lat_lenb1 # 121 0
topohru0011 0.39792 10.00000  #lat_lenb1 # 121 0
topohru0012 0.02823 90.00000  90.00000     121 0
topohru0013 0.17478 10.00000  #lat_lenb1 # 121 0
topohru0014 0.39792 10.00000  #lat_lenb1 # 121 0
topohru0015 0.05867 30.00000  30.00000     121 0
topohru0016 0.15033 10.00000  #lat_lenb1 # 121 0
topohru0017 0.41408 10.00000  #lat_lenb1 # 121 0
topohru0018 0.04863 60.00000  #lat_lena1 # 121 0
topohru0019 0.13358 10.00000  #lat_lenb1 # 121 0
topohru0020 0.05487 30.00000  30.00000     121 0
topohru0021 0.17328 10.00000  #lat_lenb1 # 121 0
topohru0022 0.43039 10.00000  #lat_lenb1 # 121 0
topohru0023 0.17422 10.00000  #lat_lenb1 # 121 0
topohru0024 0.05664 30.00000  30.00000     121 0
topohru0025 0.41408 10.00000  #lat_lenb1 # 121 0
topohru0026 0.17422 10.00000  #lat_lenb1 # 121 0
topohru0027 0.05664 30.00000  30.00000     121 0
topohru0028 0.41408 10.00000  #lat_lenb1 # 121 0
topohru0029 0.17422 10.00000  #lat_lenb1 # 121 0
topohru0030 0.05664 30.00000  30.00000     121 0
topohru0031 0.41408 10.00000  #lat_lenb1 # 121 0
topohru0032 0.03463 60.00000  #lat_lena1 # 121 0
topohru0033 0.14266 10.00000  #lat_lenb1 # 121 0
topohru0034 0.02633 90.00000  90.00000     121 0
topohru0035 0.17712 10.00000  #lat_lenb1 # 121 0
topohru0036 0.38179 10.00000  #lat_lenb1 # 121 0
topohru0037 0.05297 30.00000  30.00000     121 0
topohru0038 0.15810 10.00000  #lat_lenb1 # 121 0
topohru0039 0.41624 10.00000  #lat_lenb1 # 121 0
topohru0040 0.19065 10.00000  #lat_lenb1 # 121 0
topohru0041 0.42492 10.00000  #lat_lenb1 # 121 0
topohru0042 0.19048 10.00000  #lat_lenb1 # 121 0
topohru0043 0.42556 10.00000  #lat_lenb1 # 121 0
topohru0044 0.19048 10.00000  #lat_lenb1 # 121 0
topohru0045 0.42556 10.00000  #lat_lenb1 # 121 0
topohru0046 0.19048 10.00000  #lat_lenb1 # 121 0
topohru0047 0.42556 10.00000  #lat_lenb1 # 121 0
topohru0048 0.03404 60.00000  #lat_lena1 # 121 0
topohru0049 0.14397 10.00000  #lat_lenb1 # 121 0
topohru0050 0.02522 90.00000  90.00000     121 0
topohru0051 0.18513 10.00000  #lat_lenb1 # 121 0
topohru0052 0.11429 10.00000  #lat_lenb1 # 121 0
topohru0053 0.04003 60.00000  #lat_lena1 # 121 0
topohru0054 0.12305 10.00000  #lat_lenb1 # 121 0
topohru0055 0.04087 60.00000  #lat_lena1 # 121 0
topohru0056 0.04564 60.00000  #lat_lena1 # 121 0
topohru0057 0.13196 10.00000  #lat_lenb1 # 121 0
topohru0058 0.11164 10.00000  #lat_lenb1 # 121 0
topohru0059 0.03831 60.00000  #lat_lena1 # 121 0
topohru0060 0.03733 60.00000  #lat_lena1 # 121 0
topohru0061 0.16353 10.00000  #lat_lenb1 # 121 0
topohru0062 0.46618 10.00000  #lat_lenb1 # 121 0
topohru0063 0.03879 60.00000  #lat_lena1 # 121 0
topohru0064 0.17207 10.00000  #lat_lenb1 # 121 0
topohru0065 0.47594 10.00000  #lat_lenb1 # 121 0
topohru0066 0.03409 60.00000  #lat_lena1 # 121 0
topohru0067 0.17012 10.00000  #lat_lenb1 # 121 0
topohru0068 0.41473 10.00000  #lat_lenb1 # 121 0
topohru0069 0.03769 60.00000  #lat_lena1 # 121 0
topohru0070 0.15511 10.00000  #lat_lenb1 # 121 0
topohru0071 0.18056 10.00000  #lat_lenb1 # 121 0
topohru0072 0.47802 10.00000  #lat_lenb1 # 121 0
topohru0073 0.03390 60.00000  #lat_lena1 # 121 0
topohru0074 0.48517 10.00000  #lat_lenb1 # 121 0
topohru0075 0.18981 10.00000  #lat_lenb1 # 121 0
topohru0076 0.03266 60.00000  #lat_lena1 # 121 0
topohru0077 0.02679 90.00000  90.00000     121 0
topohru0078 0.50428 10.00000  #lat_lenb1 # 121 0
topohru0079 0.17209 10.00000  #lat_lenb1 # 121 0
topohru0080 0.18053 10.00000  #lat_lenb1 # 121 0
topohru0081 0.02378 90.00000  90.00000     121 0
topohru0082 0.45528 10.00000  #lat_lenb1 # 121 0
topohru0083 0.13769 10.00000  #lat_lenb1 # 121 0
topohru0084 0.02809 90.00000  90.00000     121 0
topohru0085 0.19562 10.00000  #lat_lenb1 # 121 0
topohru0086 0.43868 10.00000  #lat_lenb1 # 121 0
topohru0087 0.20250 10.00000  #lat_lenb1 # 121 0
topohru0088 0.39305 10.00000  #lat_lenb1 # 121 0
topohru0089 0.19600 10.00000  #lat_lenb1 # 121 0
topohru0090 0.42226 10.00000  #lat_lenb1 # 121 0
topohru0091 0.13013 10.00000  #lat_lenb1 # 121 0
topohru0092 0.03324 60.00000  #lat_lena1 # 121 0
topohru0093 0.12757 10.00000  #lat_lenb1 # 121 0
topohru0094 0.02971 90.00000  90.00000     121 0
topohru0095 0.03194 60.00000  #lat_lena1 # 121 0
topohru0096 0.13086 10.00000  #lat_lenb1 # 121 0
topohru0097 0.12859 10.00000  #lat_lenb1 # 121 0
topohru0098 0.03897 60.00000  #lat_lena1 # 121 0
topohru0099 0.38108 10.00000  #lat_lenb1 # 121 0
topohru0100 0.16745 10.00000  #lat_lenb1 # 121 0
topohru0101 0.03884 60.00000  #lat_lena1 # 121 0
topohru0102 0.04795 60.00000  #lat_lena1 # 121 0
topohru0103 0.15895 10.00000  #lat_lenb1 # 121 0
topohru0104 0.38089 10.00000  #lat_lenb1 # 121 0
topohru0105 0.20629 10.00000  #lat_lenb1 # 121 0
topohru0106 0.18733 10.00000  #lat_lenb1 # 121 0
topohru0107 0.39313 10.00000  #lat_lenb1 # 121 0
topohru0108 0.04697 60.00000  #lat_lena1 # 121 0
topohru0109 0.17735 10.00000  #lat_lenb1 # 121 0
topohru0110 0.42042 10.00000  #lat_lenb1 # 121 0
topohru0111 0.04639 60.00000  #lat_lena1 # 121 0
topohru0112 0.17147 10.00000  #lat_lenb1 # 121 0
topohru0113 0.05164 30.00000  30.00000     121 0
topohru0114 0.35417 10.00000  #lat_lenb1 # 121 0
topohru0115 0.19002 10.00000  #lat_lenb1 # 121 0
topohru0116 0.42583 10.00000  #lat_lenb1 # 121 0
topohru0117 0.04646 60.00000  #lat_lena1 # 121 0
topohru0118 0.15175 10.00000  #lat_lenb1 # 121 0
topohru0119 0.41793 10.00000  #lat_lenb1 # 121 0
topohru0120 0.03396 60.00000  #lat_lena1 # 121 0
topohru0121 0.03899 60.00000  #lat_lena1 # 121 0
topohru0122 0.16329 10.00000  #lat_lenb1 # 121 0
topohru0123 0.37857 10.00000  #lat_lenb1 # 121 0
topohru0124 0.19512 10.00000  #lat_lenb1 # 121 0
topohru0125 0.39240 10.00000  #lat_lenb1 # 121 0
topohru0126 0.03663 60.00000  #lat_lena1 # 121 0
topohru0127 0.03899 60.00000  #lat_lena1 # 121 0
topohru0128 0.16329 10.00000  #lat_lenb1 # 121 0
topohru0129 0.37857 10.00000  #lat_lenb1 # 121 0
topohru0130 0.19512 10.00000  #lat_lenb1 # 121 0
topohru0131 0.39240 10.00000  #lat_lenb1 # 121 0
topohru0132 0.03663 60.00000  #lat_lena1 # 121 0
topohru0133 0.03596 60.00000  #lat_lena1 # 121 0
topohru0134 0.15075 10.00000  #lat_lenb1 # 121 0
topohru0135 0.02279 90.00000  90.00000     121 0
topohru0136 0.03377 60.00000  #lat_lena1 # 121 0
topohru0137 0.13833 10.00000  #lat_lenb1 # 121 0
topohru0138 0.12664 10.00000  #lat_lenb1 # 121 0
topohru0139 0.04288 60.00000  #lat_lena1 # 121 0
topohru0140 0.18580 10.00000  #lat_lenb1 # 121 0
topohru0141 0.38846 10.00000  #lat_lenb1 # 121 0
topohru0142 0.05173 30.00000  30.00000     121 0
topohru0143 0.17888 10.00000  #lat_lenb1 # 121 0
topohru0144 0.40050 10.00000  #lat_lenb1 # 121 0
topohru0145 0.05589 30.00000  30.00000     121 0
topohru0146 0.44962 10.00000  #lat_lenb1 # 121 0
topohru0147 0.18243 10.00000  #lat_lenb1 # 121 0
topohru0148 0.04591 60.00000  #lat_lena1 # 121 0
topohru0149 0.13396 10.00000  #lat_lenb1 # 121 0
topohru0150 0.05038 30.00000  30.00000     121 0
topohru0151 0.48401 10.00000  #lat_lenb1 # 121 0
topohru0152 0.17726 10.00000  #lat_lenb1 # 121 0
topohru0153 0.44571 10.00000  #lat_lenb1 # 121 0
topohru0154 0.04800 60.00000  #lat_lena1 # 121 0
topohru0155 0.18221 10.00000  #lat_lenb1 # 121 0
topohru0156 0.44044 10.00000  #lat_lenb1 # 121 0
topohru0157 0.04257 60.00000  #lat_lena1 # 121 0
topohru0158 0.18221 10.00000  #lat_lenb1 # 121 0
topohru0159 0.44044 10.00000  #lat_lenb1 # 121 0
topohru0160 0.04257 60.00000  #lat_lena1 # 121 0
topohru0161 0.13762 10.00000  #lat_lenb1 # 121 0
topohru0162 0.03615 60.00000  #lat_lena1 # 121 0
topohru0163 0.02753 90.00000  90.00000     121 0
topohru0164 0.13792 10.00000  #lat_lenb1 # 121 0
topohru0165 0.02126 90.00000  90.00000     121 0
topohru0166 0.15355 10.00000  #lat_lenb1 # 121 0
topohru0167 0.17511 10.00000  #lat_lenb1 # 121 0
topohru0168 0.02419 90.00000  90.00000     121 0
topohru0169 0.42913 10.00000  #lat_lenb1 # 121 0
topohru0170 0.18600 10.00000  #lat_lenb1 # 121 0
topohru0171 0.04535 60.00000  #lat_lena1 # 121 0
topohru0172 0.45611 10.00000  #lat_lenb1 # 121 0
topohru0173 0.04901 60.00000  #lat_lena1 # 121 0
topohru0174 0.18290 10.00000  #lat_lenb1 # 121 0
topohru0175 0.41581 10.00000  #lat_lenb1 # 121 0
topohru0176 0.20296 10.00000  #lat_lenb1 # 121 0
topohru0177 0.39554 10.00000  #lat_lenb1 # 121 0
topohru0178 0.05244 30.00000  30.00000     121 0
topohru0179 0.17677 10.00000  #lat_lenb1 # 121 0
topohru0180 0.41850 10.00000  #lat_lenb1 # 121 0
topohru0181 0.39982 10.00000  #lat_lenb1 # 121 0
topohru0182 0.18045 10.00000  #lat_lenb1 # 121 0
topohru0183 0.05446 30.00000  30.00000     121 0
topohru0184 0.16834 10.00000  #lat_lenb1 # 121 0
topohru0185 0.39445 10.00000  #lat_lenb1 # 121 0
topohru0186 0.05071 30.00000  30.00000     121 0
topohru0187 0.04963 60.00000  #lat_lena1 # 121 0
topohru0188 0.16679 10.00000  #lat_lenb1 # 121 0
topohru0189 0.35945 10.00000  #lat_lenb1 # 121 0
topohru0190 0.20486 10.00000  #lat_lenb1 # 121 0
topohru0191 0.41910 10.00000  #lat_lenb1 # 121 0
topohru0192 0.20486 10.00000  #lat_lenb1 # 121 0
topohru0193 0.41910 10.00000  #lat_lenb1 # 121 0
topohru0194 0.17876 10.00000  #lat_lenb1 # 121 0
topohru0195 0.02840 90.00000  90.00000     121 0
topohru0196 0.02588 90.00000  90.00000     121 0
topohru0197 0.16975 10.00000  #lat_lenb1 # 121 0
topohru0198 0.02236 90.00000  90.00000     121 0
topohru0199 0.17485 10.00000  #lat_lenb1 # 121 0
topohru0200 0.44061 10.00000  #lat_lenb1 # 121 0
topohru0201 0.17500 10.00000  #lat_lenb1 # 121 0
topohru0202 0.40039 10.00000  #lat_lenb1 # 121 0
topohru0203 0.05603 30.00000  30.00000     121 0
topohru0204 0.16875 10.00000  #lat_lenb1 # 121 0
topohru0205 0.05826 30.00000  30.00000     121 0
topohru0206 0.38704 10.00000  #lat_lenb1 # 121 0
topohru0207 0.02897 90.00000  90.00000     121 0
topohru0208 0.18567 10.00000  #lat_lenb1 # 121 0
topohru0209 0.41950 10.00000  #lat_lenb1 # 121 0
topohru0210 0.21552 10.00000  #lat_lenb1 # 121 0
topohru0211 0.34545 10.00000  #lat_lenb1 # 121 0
topohru0212 0.03042 60.00000  #lat_lena1 # 121 0
topohru0213 0.15017 10.00000  #lat_lenb1 # 121 0
topohru0214 0.05442 30.00000  30.00000     121 0
topohru0215 0.05335 30.00000  30.00000     121 0
topohru0216 0.16993 10.00000  #lat_lenb1 # 121 0
topohru0217 0.36229 10.00000  #lat_lenb1 # 121 0
topohru0218 0.04776 60.00000  #lat_lena1 # 121 0
topohru0219 0.19039 10.00000  #lat_lenb1 # 121 0
topohru0220 0.34231 10.00000  #lat_lenb1 # 121 0
topohru0221 0.05166 30.00000  30.00000     121 0
topohru0222 0.17287 10.00000  #lat_lenb1 # 121 0
topohru0223 0.41437 10.00000  #lat_lenb1 # 121 0
topohru0224 0.14631 10.00000  #lat_lenb1 # 121 0
topohru0225 0.05247 30.00000  30.00000     121 0
topohru0226 0.14631 10.00000  #lat_lenb1 # 121 0
topohru0227 0.05247 30.00000  30.00000     121 0
topohru0228 0.02716 90.00000  90.00000     121 0
topohru0229 0.16247 10.00000  #lat_lenb1 # 121 0
topohru0230 0.41994 10.00000  #lat_lenb1 # 121 0
topohru0231 0.02916 90.00000  90.00000     121 0
topohru0232 0.15547 10.00000  #lat_lenb1 # 121 0
topohru0233 0.41891 10.00000  #lat_lenb1 # 121 0
topohru0234 0.04034 60.00000  #lat_lena1 # 121 0
topohru0235 0.12299 10.00000  #lat_lenb1 # 121 0
topohru0236 0.03401 60.00000  #lat_lena1 # 121 0
topohru0237 0.14234 10.00000  #lat_lenb1 # 121 0
topohru0238 0.47081 10.00000  #lat_lenb1 # 121 0
topohru0239 0.17459 10.00000  #lat_lenb1 # 121 0
topohru0240 0.02446 90.00000  90.00000     121 0
topohru0241 0.47737 10.00000  #lat_lenb1 # 121 0
topohru0242 0.17996 10.00000  #lat_lenb1 # 121 0
topohru0243 0.02470 90.00000  90.00000     121 0
topohru0244 0.03934 60.00000  #lat_lena1 # 121 0
topohru0245 0.12239 10.00000  #lat_lenb1 # 121 0
topohru0246 0.15674 10.00000  #lat_lenb1 # 121 0
topohru0247 0.03559 60.00000  #lat_lena1 # 121 0
topohru0248 0.03934 60.00000  #lat_lena1 # 121 0
topohru0249 0.12239 10.00000  #lat_lenb1 # 121 0
topohru0250 0.15674 10.00000  #lat_lenb1 # 121 0
topohru0251 0.03559 60.00000  #lat_lena1 # 121 0
topohru0252 0.16161 10.00000  #lat_lenb1 # 121 0
topohru0253 0.43391 10.00000  #lat_lenb1 # 121 0
topohru0254 0.05145 30.00000  30.00000     121 0
topohru0255 0.04995 60.00000  #lat_lena1 # 121 0
topohru0256 0.15342 10.00000  #lat_lenb1 # 121 0
topohru0257 0.41764 10.00000  #lat_lenb1 # 121 0
topohru0258 0.47238 10.00000  #lat_lenb1 # 121 0
topohru0259 0.17999 10.00000  #lat_lenb1 # 121 0
topohru0260 0.04836 60.00000  #lat_lena1 # 121 0
topohru0261 0.16422 10.00000  #lat_lenb1 # 121 0
topohru0262 0.05130 30.00000  30.00000     121 0
topohru0263 0.44462 10.00000  #lat_lenb1 # 121 0
topohru0264 0.15339 10.00000  #lat_lenb1 # 121 0
topohru0265 0.04724 60.00000  #lat_lena1 # 121 0
topohru0266 0.14381 10.00000  #lat_lenb1 # 121 0
topohru0267 0.04746 60.00000  #lat_lena1 # 121 0
topohru0268 0.15414 10.00000  #lat_lenb1 # 121 0
topohru0269 0.04760 60.00000  #lat_lena1 # 121 0
topohru0270 0.04726 60.00000  #lat_lena1 # 121 0
topohru0271 0.14253 10.00000  #lat_lenb1 # 121 0
topohru0272 0.15414 10.00000  #lat_lenb1 # 121 0
topohru0273 0.04760 60.00000  #lat_lena1 # 121 0
topohru0274 0.04726 60.00000  #lat_lena1 # 121 0
topohru0275 0.14253 10.00000  #lat_lenb1 # 121 0
topohru0276 0.02554 90.00000  90.00000     121 0
topohru0277 0.19053 10.00000  #lat_lenb1 # 121 0
topohru0278 0.38425 10.00000  #lat_lenb1 # 121 0
topohru0279 0.41181 10.00000  #lat_lenb1 # 121 0
topohru0280 0.20462 10.00000  #lat_lenb1 # 121 0
topohru0281 0.01942 90.00000  90.00000     121 0
topohru0282 0.17116 10.00000  #lat_lenb1 # 121 0
topohru0283 0.02993 90.00000  90.00000     121 0
topohru0284 0.01787 90.00000  90.00000     121 0
topohru0285 0.16096 10.00000  #lat_lenb1 # 121 0
topohru0286 0.18696 10.00000  #lat_lenb1 # 121 0
topohru0287 0.02816 90.00000  90.00000     121 0
topohru0288 0.38602 10.00000  #lat_lenb1 # 121 0
topohru0289 0.04602 60.00000  #lat_lena1 # 121 0
topohru0290 0.17207 10.00000  #lat_lenb1 # 121 0
topohru0291 0.16822 10.00000  #lat_lenb1 # 121 0
topohru0292 0.03470 60.00000  #lat_lena1 # 121 0
topohru0293 0.18182 10.00000  #lat_lenb1 # 121 0
topohru0294 0.04854 60.00000  #lat_lena1 # 121 0
topohru0295 0.46760 10.00000  #lat_lenb1 # 121 0
topohru0296 0.20604 10.00000  #lat_lenb1 # 121 0
topohru0297 0.46935 10.00000  #lat_lenb1 # 121 0
topohru0298 0.05296 30.00000  30.00000     121 0
topohru0299 0.16730 10.00000  #lat_lenb1 # 121 0
topohru0300 0.41294 10.00000  #lat_lenb1 # 121 0
topohru0301 0.19237 10.00000  #lat_lenb1 # 121 0
topohru0302 0.04754 60.00000  #lat_lena1 # 121 0
topohru0303 0.41589 10.00000  #lat_lenb1 # 121 0
topohru0304 0.04792 60.00000  #lat_lena1 # 121 0
topohru0305 0.18199 10.00000  #lat_lenb1 # 121 0
topohru0306 0.42952 10.00000  #lat_lenb1 # 121 0
topohru0307 0.46943 10.00000  #lat_lenb1 # 121 0
topohru0308 0.20599 10.00000  #lat_lenb1 # 121 0
topohru0309 0.04792 60.00000  #lat_lena1 # 121 0
topohru0310 0.18199 10.00000  #lat_lenb1 # 121 0
topohru0311 0.42952 10.00000  #lat_lenb1 # 121 0
topohru0312 0.46943 10.00000  #lat_lenb1 # 121 0
topohru0313 0.20599 10.00000  #lat_lenb1 # 121 0
topohru0314 0.19183 10.00000  #lat_lenb1 # 121 0
topohru0315 0.51737 10.00000  #lat_lenb1 # 121 0
topohru0316 0.01496 90.00000  90.00000     121 0
topohru0317 0.01417 90.00000  90.00000     121 0
topohru0318 0.46436 10.00000  #lat_lenb1 # 121 0
topohru0319 0.17400 10.00000  #lat_lenb1 # 121 0
topohru0320 0.02358 90.00000  90.00000     121 0
topohru0321 0.17023 10.00000  #lat_lenb1 # 121 0
topohru0322 0.52369 10.00000  #lat_lenb1 # 121 0
topohru0323 0.15553 10.00000  #lat_lenb1 # 121 0
topohru0324 0.02578 90.00000  90.00000     121 0
topohru0325 0.03213 60.00000  #lat_lena1 # 121 0
topohru0326 0.15126 10.00000  #lat_lenb1 # 121 0
topohru0327 0.15976 10.00000  #lat_lenb1 # 121 0
topohru0328 0.02968 90.00000  90.00000     121 0
topohru0329 0.17704 10.00000  #lat_lenb1 # 121 0
topohru0330 0.54695 10.00000  #lat_lenb1 # 121 0
topohru0331 0.01790 90.00000  90.00000     121 0
topohru0332 0.17704 10.00000  #lat_lenb1 # 121 0
topohru0333 0.54695 10.00000  #lat_lenb1 # 121 0
topohru0334 0.01790 90.00000  90.00000     121 0
topohru0335 0.04808 60.00000  #lat_lena1 # 121 0
topohru0336 0.16909 10.00000  #lat_lenb1 # 121 0
topohru0337 0.49216 10.00000  #lat_lenb1 # 121 0
topohru0338 0.47702 10.00000  #lat_lenb1 # 121 0
topohru0339 0.18315 10.00000  #lat_lenb1 # 121 0
topohru0340 0.04938 60.00000  #lat_lena1 # 121 0
topohru0341 0.18367 10.00000  #lat_lenb1 # 121 0
topohru0342 0.50512 10.00000  #lat_lenb1 # 121 0
topohru0343 0.18367 10.00000  #lat_lenb1 # 121 0
topohru0344 0.50512 10.00000  #lat_lenb1 # 121 0
topohru0345 0.15154 10.00000  #lat_lenb1 # 121 0
topohru0346 0.03576 60.00000  #lat_lena1 # 121 0
topohru0347 0.15129 10.00000  #lat_lenb1 # 121 0
topohru0348 0.03317 60.00000  #lat_lena1 # 121 0
topohru0349 0.03826 60.00000  #lat_lena1 # 121 0
topohru0350 0.11522 10.00000  #lat_lenb1 # 121 0
topohru0351 0.03661 60.00000  #lat_lena1 # 121 0
topohru0352 0.10408 10.00000  #lat_lenb1 # 121 0
topohru0353 0.14990 10.00000  #lat_lenb1 # 121 0
topohru0354 0.03730 60.00000  #lat_lena1 # 121 0
topohru0355 0.02803 90.00000  90.00000     121 0
topohru0356 0.03259 60.00000  #lat_lena1 # 121 0
topohru0357 0.17430 10.00000  #lat_lenb1 # 121 0
topohru0358 0.05119 30.00000  30.00000     121 0
topohru0359 0.45141 10.00000  #lat_lenb1 # 121 0
topohru0360 0.19356 10.00000  #lat_lenb1 # 121 0
topohru0361 0.42386 10.00000  #lat_lenb1 # 121 0
topohru0362 0.18885 10.00000  #lat_lenb1 # 121 0
topohru0363 0.38393 10.00000  #lat_lenb1 # 121 0
topohru0364 0.15923 10.00000  #lat_lenb1 # 121 0
topohru0365 0.05452 30.00000  30.00000     121 0
topohru0366 0.39687 10.00000  #lat_lenb1 # 121 0
topohru0367 0.17657 10.00000  #lat_lenb1 # 121 0
topohru0368 0.38496 10.00000  #lat_lenb1 # 121 0
topohru0369 0.17657 10.00000  #lat_lenb1 # 121 0
topohru0370 0.38496 10.00000  #lat_lenb1 # 121 0
topohru0371 0.03064 60.00000  #lat_lena1 # 121 0
topohru0372 0.13817 10.00000  #lat_lenb1 # 121 0
topohru0373 0.16413 10.00000  #lat_lenb1 # 121 0
topohru0374 0.02918 90.00000  90.00000     121 0
topohru0375 0.18244 10.00000  #lat_lenb1 # 121 0
topohru0376 0.02934 90.00000  90.00000     121 0
topohru0377 0.06141 30.00000  30.00000     121 0
topohru0378 0.16133 10.00000  #lat_lenb1 # 121 0
topohru0379 0.04128 60.00000  #lat_lena1 # 121 0
topohru0380 0.13669 10.00000  #lat_lenb1 # 121 0
topohru0381 0.12886 10.00000  #lat_lenb1 # 121 0
topohru0382 0.04221 60.00000  #lat_lena1 # 121 0
topohru0383 0.16662 10.00000  #lat_lenb1 # 121 0
topohru0384 0.04018 60.00000  #lat_lena1 # 121 0
topohru0385 0.16428 10.00000  #lat_lenb1 # 121 0
topohru0386 0.05136 30.00000  30.00000     121 0
topohru0387 0.02053 90.00000  90.00000     121 0
topohru0388 0.01450 90.00000  90.00000     121 0
topohru0389 0.13725 10.00000  #lat_lenb1 # 121 0
topohru0390 0.01977 90.00000  90.00000     121 0
topohru0391 0.03068 60.00000  #lat_lena1 # 121 0
topohru0392 0.12414 10.00000  #lat_lenb1 # 121 0
topohru0393 0.05089 30.00000  30.00000     121 0
topohru0394 0.16424 10.00000  #lat_lenb1 # 121 0
topohru0395 0.04572 60.00000  #lat_lena1 # 121 0
topohru0396 0.14297 10.00000  #lat_lenb1 # 121 0
topohru0397 0.13438 10.00000  #lat_lenb1 # 121 0
topohru0398 0.04929 60.00000  #lat_lena1 # 121 0
topohru0399 0.14872 10.00000  #lat_lenb1 # 121 0
topohru0400 0.05223 30.00000  30.00000     121 0
topohru0401 0.05455 30.00000  30.00000     121 0
topohru0402 0.13992 10.00000  #lat_lenb1 # 121 0
topohru0403 0.13889 10.00000  #lat_lenb1 # 121 0
topohru0404 0.04844 60.00000  #lat_lena1 # 121 0
topohru0405 0.03353 60.00000  #lat_lena1 # 121 0
topohru0406 0.13379 10.00000  #lat_lenb1 # 121 0
topohru0407 0.11463 10.00000  #lat_lenb1 # 121 0
topohru0408 0.03871 60.00000  #lat_lena1 # 121 0
topohru0409 0.02998 90.00000  90.00000     121 0
topohru0410 0.15376 10.00000  #lat_lenb1 # 121 0
topohru0411 0.01938 90.00000  90.00000     121 0
topohru0412 0.12544 10.00000  #lat_lenb1 # 121 0
topohru0413 0.00930 121.00000 121.00000    121 0
topohru0414 0.02695 90.00000  90.00000     121 0
topohru0415 0.13920 10.00000  #lat_lenb1 # 121 0
topohru0416 0.01380 90.00000  90.00000     121 0
topohru0417 0.00980 121.00000 121.00000    121 0
topohru0418 0.04658 60.00000  #lat_lena1 # 121 0
topohru0419 0.13306 10.00000  #lat_lenb1 # 121 0
topohru0420 0.04374 60.00000  #lat_lena1 # 121 0
topohru0421 0.13519 10.00000  #lat_lenb1 # 121 0
topohru0422 0.14237 10.00000  #lat_lenb1 # 121 0
topohru0423 0.05112 30.00000  30.00000     121 0
topohru0424 0.14438 10.00000  #lat_lenb1 # 121 0
topohru0425 0.05016 30.00000  30.00000     121 0
topohru0426 0.45351 10.00000  #lat_lenb1 # 121 0
topohru0427 0.13394 10.00000  #lat_lenb1 # 121 0
topohru0428 0.05220 30.00000  30.00000     121 0
topohru0429 0.11211 10.00000  #lat_lenb1 # 121 0
topohru0430 0.05076 30.00000  30.00000     121 0
topohru0431 0.13394 10.00000  #lat_lenb1 # 121 0
topohru0432 0.05220 30.00000  30.00000     121 0
topohru0433 0.11211 10.00000  #lat_lenb1 # 121 0
topohru0434 0.05076 30.00000  30.00000     121 0
topohru0435 0.13394 10.00000  #lat_lenb1 # 121 0
topohru0436 0.05220 30.00000  30.00000     121 0
topohru0437 0.11211 10.00000  #lat_lenb1 # 121 0
topohru0438 0.05076 30.00000  30.00000     121 0
topohru0439 0.13394 10.00000  #lat_lenb1 # 121 0
topohru0440 0.05220 30.00000  30.00000     121 0
topohru0441 0.11211 10.00000  #lat_lenb1 # 121 0
topohru0442 0.05076 30.00000  30.00000     121 0
topohru0443 0.02261 90.00000  90.00000     121 0
topohru0444 0.13498 10.00000  #lat_lenb1 # 121 0
topohru0445 0.03619 60.00000  #lat_lena1 # 121 0
topohru0446 0.13655 10.00000  #lat_lenb1 # 121 0
topohru0447 0.15445 10.00000  #lat_lenb1 # 121 0
topohru0448 0.03449 60.00000  #lat_lena1 # 121 0
topohru0449 0.02784 90.00000  90.00000     121 0
topohru0450 0.14047 10.00000  #lat_lenb1 # 121 0
topohru0451 0.02262 90.00000  90.00000     121 0
topohru0452 0.02956 90.00000  90.00000     121 0
topohru0453 0.12876 10.00000  #lat_lenb1 # 121 0
topohru0454 0.01897 90.00000  90.00000     121 0
topohru0455 0.13710 10.00000  #lat_lenb1 # 121 0
topohru0456 0.01595 90.00000  90.00000     121 0
topohru0457 0.12532 10.00000  #lat_lenb1 # 121 0
topohru0458 0.04140 60.00000  #lat_lena1 # 121 0
topohru0459 0.17861 10.00000  #lat_lenb1 # 121 0
topohru0460 0.39393 10.00000  #lat_lenb1 # 121 0
topohru0461 0.17887 10.00000  #lat_lenb1 # 121 0
topohru0462 0.39754 10.00000  #lat_lenb1 # 121 0
topohru0463 0.04265 60.00000  #lat_lena1 # 121 0
topohru0464 0.15736 10.00000  #lat_lenb1 # 121 0
topohru0465 0.03019 60.00000  #lat_lena1 # 121 0
topohru0466 0.04151 60.00000  #lat_lena1 # 121 0
topohru0467 0.16657 10.00000  #lat_lenb1 # 121 0
topohru0468 0.39534 10.00000  #lat_lenb1 # 121 0
topohru0469 0.41951 10.00000  #lat_lenb1 # 121 0
topohru0470 0.16788 10.00000  #lat_lenb1 # 121 0
topohru0471 0.04508 60.00000  #lat_lena1 # 121 0
topohru0472 0.40740 10.00000  #lat_lenb1 # 121 0
topohru0473 0.15580 10.00000  #lat_lenb1 # 121 0
topohru0474 0.05102 30.00000  30.00000     121 0
topohru0475 0.14974 10.00000  #lat_lenb1 # 121 0
topohru0476 0.04504 60.00000  #lat_lena1 # 121 0
topohru0477 0.04074 60.00000  #lat_lena1 # 121 0
topohru0478 0.15466 10.00000  #lat_lenb1 # 121 0
topohru0479 0.14974 10.00000  #lat_lenb1 # 121 0
topohru0480 0.04504 60.00000  #lat_lena1 # 121 0
topohru0481 0.04074 60.00000  #lat_lena1 # 121 0
topohru0482 0.15466 10.00000  #lat_lenb1 # 121 0
topohru0483 0.14974 10.00000  #lat_lenb1 # 121 0
topohru0484 0.04504 60.00000  #lat_lena1 # 121 0
topohru0485 0.04074 60.00000  #lat_lena1 # 121 0
topohru0486 0.15466 10.00000  #lat_lenb1 # 121 0
topohru0487 0.01988 90.00000  90.00000     121 0
topohru0488 0.00783 121.00000 121.00000    121 0
topohru0489 0.02406 90.00000  90.00000     121 0
topohru0490 0.14525 10.00000  #lat_lenb1 # 121 0
topohru0491 0.03554 60.00000  #lat_lena1 # 121 0
topohru0492 0.02161 90.00000  90.00000     121 0
topohru0493 0.02901 90.00000  90.00000     121 0
topohru0494 0.12956 10.00000  #lat_lenb1 # 121 0
topohru0495 0.02427 90.00000  90.00000     121 0
topohru0496 0.13583 10.00000  #lat_lenb1 # 121 0
topohru0497 0.02133 90.00000  90.00000     121 0
topohru0498 0.40104 10.00000  #lat_lenb1 # 121 0
topohru0499 0.15569 10.00000  #lat_lenb1 # 121 0
topohru0500 0.15393 10.00000  #lat_lenb1 # 121 0
topohru0501 0.05315 30.00000  30.00000     121 0
topohru0502 0.18136 10.00000  #lat_lenb1 # 121 0
topohru0503 0.05254 30.00000  30.00000     121 0
topohru0504 0.39610 10.00000  #lat_lenb1 # 121 0
topohru0505 0.05171 30.00000  30.00000     121 0
topohru0506 0.16755 10.00000  #lat_lenb1 # 121 0
topohru0507 0.38938 10.00000  #lat_lenb1 # 121 0
topohru0508 0.04994 60.00000  #lat_lena1 # 121 0
topohru0509 0.14890 10.00000  #lat_lenb1 # 121 0
topohru0510 0.15309 10.00000  #lat_lenb1 # 121 0
topohru0511 0.04859 60.00000  #lat_lena1 # 121 0
topohru0512 0.02825 90.00000  90.00000     121 0
topohru0513 0.12922 10.00000  #lat_lenb1 # 121 0
topohru0514 0.12750 10.00000  #lat_lenb1 # 121 0
topohru0515 0.02765 90.00000  90.00000     121 0
topohru0516 0.01454 90.00000  90.00000     121 0
topohru0517 0.12355 10.00000  #lat_lenb1 # 121 0
topohru0518 0.01232 90.00000  90.00000     121 0
topohru0519 0.05079 30.00000  30.00000     121 0
topohru0520 0.16978 10.00000  #lat_lenb1 # 121 0
topohru0521 0.39300 10.00000  #lat_lenb1 # 121 0
topohru0522 0.17220 10.00000  #lat_lenb1 # 121 0
topohru0523 0.39269 10.00000  #lat_lenb1 # 121 0
topohru0524 0.04979 60.00000  #lat_lena1 # 121 0
topohru0525 0.16613 10.00000  #lat_lenb1 # 121 0
topohru0526 0.05490 30.00000  30.00000     121 0
topohru0527 0.38519 10.00000  #lat_lenb1 # 121 0
topohru0528 0.17798 10.00000  #lat_lenb1 # 121 0
topohru0529 0.05154 30.00000  30.00000     121 0
topohru0530 0.40231 10.00000  #lat_lenb1 # 121 0
topohru0531 0.15651 10.00000  #lat_lenb1 # 121 0
topohru0532 0.05461 30.00000  30.00000     121 0
topohru0533 0.15483 10.00000  #lat_lenb1 # 121 0
topohru0534 0.05523 30.00000  30.00000     121 0
topohru0535 0.05301 30.00000  30.00000     121 0
topohru0536 0.17806 10.00000  #lat_lenb1 # 121 0
topohru0537 0.39761 10.00000  #lat_lenb1 # 121 0
topohru0538 0.38926 10.00000  #lat_lenb1 # 121 0
topohru0539 0.17470 10.00000  #lat_lenb1 # 121 0
topohru0540 0.05235 30.00000  30.00000     121 0
topohru0541 0.05301 30.00000  30.00000     121 0
topohru0542 0.17806 10.00000  #lat_lenb1 # 121 0
topohru0543 0.39761 10.00000  #lat_lenb1 # 121 0
topohru0544 0.38926 10.00000  #lat_lenb1 # 121 0
topohru0545 0.17470 10.00000  #lat_lenb1 # 121 0
topohru0546 0.05235 30.00000  30.00000     121 0
topohru0547 0.13089 10.00000  #lat_lenb1 # 121 0
topohru0548 0.03018 60.00000  #lat_lena1 # 121 0
topohru0549 0.02611 90.00000  90.00000     121 0
topohru0550 0.13475 10.00000  #lat_lenb1 # 121 0
topohru0551 0.19491 10.00000  #lat_lenb1 # 121 0
topohru0552 0.35578 10.00000  #lat_lenb1 # 121 0
topohru0553 0.04525 60.00000  #lat_lena1 # 121 0
topohru0554 0.18774 10.00000  #lat_lenb1 # 121 0
topohru0555 0.41553 10.00000  #lat_lenb1 # 121 0
topohru0556 0.04820 60.00000  #lat_lena1 # 121 0
topohru0557 0.15755 10.00000  #lat_lenb1 # 121 0
topohru0558 0.04451 60.00000  #lat_lena1 # 121 0
topohru0559 0.16421 10.00000  #lat_lenb1 # 121 0
topohru0560 0.39698 10.00000  #lat_lenb1 # 121 0
topohru0561 0.04800 60.00000  #lat_lena1 # 121 0
topohru0562 0.19117 10.00000  #lat_lenb1 # 121 0
topohru0563 0.04734 60.00000  #lat_lena1 # 121 0
topohru0564 0.43309 10.00000  #lat_lenb1 # 121 0
topohru0565 0.19763 10.00000  #lat_lenb1 # 121 0
topohru0566 0.40639 10.00000  #lat_lenb1 # 121 0
topohru0567 0.17224 10.00000  #lat_lenb1 # 121 0
topohru0568 0.42122 10.00000  #lat_lenb1 # 121 0
topohru0569 0.04752 60.00000  #lat_lena1 # 121 0
topohru0570 0.15017 10.00000  #lat_lenb1 # 121 0
topohru0571 0.36652 10.00000  #lat_lenb1 # 121 0
topohru0572 0.04787 60.00000  #lat_lena1 # 121 0
topohru0573 0.17224 10.00000  #lat_lenb1 # 121 0
topohru0574 0.42122 10.00000  #lat_lenb1 # 121 0
topohru0575 0.04752 60.00000  #lat_lena1 # 121 0
topohru0576 0.15017 10.00000  #lat_lenb1 # 121 0
topohru0577 0.36652 10.00000  #lat_lenb1 # 121 0
topohru0578 0.04787 60.00000  #lat_lena1 # 121 0
topohru0579 0.17224 10.00000  #lat_lenb1 # 121 0
topohru0580 0.42122 10.00000  #lat_lenb1 # 121 0
topohru0581 0.04752 60.00000  #lat_lena1 # 121 0
topohru0582 0.15017 10.00000  #lat_lenb1 # 121 0
topohru0583 0.36652 10.00000  #lat_lenb1 # 121 0
topohru0584 0.04787 60.00000  #lat_lena1 # 121 0
topohru0585 0.03117 60.00000  #lat_lena1 # 121 0
topohru0586 0.12195 10.00000  #lat_lenb1 # 121 0
topohru0587 0.01733 90.00000  90.00000     121 0
topohru0588 0.13444 10.00000  #lat_lenb1 # 121 0
topohru0589 0.04474 60.00000  #lat_lena1 # 121 0
topohru0590 0.14454 10.00000  #lat_lenb1 # 121 0
topohru0591 0.14392 10.00000  #lat_lenb1 # 121 0
topohru0592 0.04845 60.00000  #lat_lena1 # 121 0
topohru0593 0.05145 30.00000  30.00000     121 0
topohru0594 0.17845 10.00000  #lat_lenb1 # 121 0
topohru0595 0.39618 10.00000  #lat_lenb1 # 121 0
topohru0596 0.19758 10.00000  #lat_lenb1 # 121 0
topohru0597 0.42179 10.00000  #lat_lenb1 # 121 0
topohru0598 0.44444 10.00000  #lat_lenb1 # 121 0
topohru0599 0.19191 10.00000  #lat_lenb1 # 121 0
topohru0600 0.05271 30.00000  30.00000     121 0
topohru0601 0.49833 10.00000  #lat_lenb1 # 121 0
topohru0602 0.19344 10.00000  #lat_lenb1 # 121 0
topohru0603 0.05271 30.00000  30.00000     121 0
topohru0604 0.16940 10.00000  #lat_lenb1 # 121 0
topohru0605 0.41391 10.00000  #lat_lenb1 # 121 0
topohru0606 0.05271 30.00000  30.00000     121 0
topohru0607 0.16940 10.00000  #lat_lenb1 # 121 0
topohru0608 0.41391 10.00000  #lat_lenb1 # 121 0
topohru0609 0.02876 90.00000  90.00000     121 0