weather-sta.cli: written by SWAT+ editor v2.1.4 on 2022-11-22 14:57 for SWAT+ rev.60.5.4
name                           wgn                        pcp                        tmp                        slr                        hmd                        wnd           wnd_dir          atmo_dep  
s39990n2279w               wgn6802               6958_PCP.pcp               6958_TMP.tmp                        sim                        sim                        sim              null              null  
s39992n2344w               wgn6806               6957_PCP.pcp               6957_TMP.tmp                        sim                        sim                        sim              null              null  
s39994n2410w               wgn6812               6956_PCP.pcp               6956_TMP.tmp                        sim                        sim                        sim              null              null  
s39996n2475w               wgn6817               6955_PCP.pcp               6955_TMP.tmp                        sim                        sim                        sim              null              null  
s40000n2605w               wgn6849               6953_PCP.pcp               6953_TMP.tmp                        sim                        sim                        sim              null              null  
s40002n2670w               wgn6852               6952_PCP.pcp               6952_TMP.tmp                        sim                        sim                        sim              null              null  
s40004n2736w               wgn6854               6951_PCP.pcp               6951_TMP.tmp                        sim                        sim                        sim              null              null  
s40038n2211w               wgn6905               7079_PCP.pcp               7079_TMP.tmp                        sim                        sim                        sim              null              null  
s40040n2276w               wgn6908               7078_PCP.pcp               7078_TMP.tmp                        sim                        sim                        sim              null              null  
s40042n2342w               wgn6912               7077_PCP.pcp               7077_TMP.tmp                        sim                        sim                        sim              null              null  
s40044n2407w               wgn6918               7076_PCP.pcp               7076_TMP.tmp                        sim                        sim                        sim              null              null  
s40046n2472w               wgn6923               7075_PCP.pcp               7075_TMP.tmp                        sim                        sim                        sim              null              null  
s40048n2537w               wgn6936               7074_PCP.pcp               7074_TMP.tmp                        sim                        sim                        sim              null              null  
s40050n2603w               wgn6955               7073_PCP.pcp               7073_TMP.tmp                        sim                        sim                        sim              null              null  
s40052n2668w               wgn6958               7072_PCP.pcp               7072_TMP.tmp                        sim                        sim                        sim              null              null  
s40054n2733w               wgn6960               7071_PCP.pcp               7071_TMP.tmp                        sim                        sim                        sim              null              null  
s40056n2799w               wgn6962               7070_PCP.pcp               7070_TMP.tmp                        sim                        sim                        sim              null              null  
s40057n2864w               wgn6963               7069_PCP.pcp               7069_TMP.tmp                        sim                        sim                        sim              null              null  
s40088n2208w               wgn7011               7199_PCP.pcp               7199_TMP.tmp                        sim                        sim                        sim              null              null  
s40090n2274w               wgn7014               7198_PCP.pcp               7198_TMP.tmp                        sim                        sim                        sim              null              null  
s40092n2339w               wgn7019               7197_PCP.pcp               7197_TMP.tmp                        sim                        sim                        sim              null              null  
s40094n2404w               wgn7025               7196_PCP.pcp               7196_TMP.tmp                        sim                        sim                        sim              null              null  
s40096n2470w               wgn7031               7195_PCP.pcp               7195_TMP.tmp                        sim                        sim                        sim              null              null  
s40098n2535w               wgn7042               7194_PCP.pcp               7194_TMP.tmp                        sim                        sim                        sim              null              null  
s40100n2600w               wgn7063               7193_PCP.pcp               7193_TMP.tmp                        sim                        sim                        sim              null              null  
s40102n2666w               wgn7066               7192_PCP.pcp               7192_TMP.tmp                        sim                        sim                        sim              null              null  
s40104n2731w               wgn7068               7191_PCP.pcp               7191_TMP.tmp                        sim                        sim                        sim              null              null  
s40105n2796w               wgn7070               7190_PCP.pcp               7190_TMP.tmp                        sim                        sim                        sim              null              null  
s40107n2861w               wgn7072               7189_PCP.pcp               7189_TMP.tmp                        sim                        sim                        sim              null              null  
s40109n2927w               wgn7074               7188_PCP.pcp               7188_TMP.tmp                        sim                        sim                        sim              null              null  
s40138n2206w               wgn7120               7315_PCP.pcp               7315_TMP.tmp                        sim                        sim                        sim              null              null  
s40140n2271w               wgn7123               7314_PCP.pcp               7314_TMP.tmp                        sim                        sim                        sim              null              null  
s40142n2336w               wgn7128               7313_PCP.pcp               7313_TMP.tmp                        sim                        sim                        sim              null              null  
s40144n2402w               wgn7134               7312_PCP.pcp               7312_TMP.tmp                        sim                        sim                        sim              null              null  
s40146n2467w               wgn7141               7311_PCP.pcp               7311_TMP.tmp                        sim                        sim                        sim              null              null  
s40148n2532w               wgn7154               7310_PCP.pcp               7310_TMP.tmp                        sim                        sim                        sim              null              null  
s40150n2598w               wgn7173               7309_PCP.pcp               7309_TMP.tmp                        sim                        sim                        sim              null              null  
s40152n2663w               wgn7176               7308_PCP.pcp               7308_TMP.tmp                        sim                        sim                        sim              null              null  
s40154n2728w               wgn7178               7307_PCP.pcp               7307_TMP.tmp                        sim                        sim                        sim              null              null  
s40156n2794w               wgn7180               7306_PCP.pcp               7306_TMP.tmp                        sim                        sim                        sim              null              null  
s40157n2859w               wgn7182               7305_PCP.pcp               7305_TMP.tmp                        sim                        sim                        sim              null              null  
s40159n2925w               wgn7184               7304_PCP.pcp               7304_TMP.tmp                        sim                        sim                        sim              null              null  
s40185n2137w               wgn7225               7428_PCP.pcp               7428_TMP.tmp                        sim                        sim                        sim              null              null  
s40188n2203w               wgn7231               7427_PCP.pcp               7427_TMP.tmp                        sim                        sim                        sim              null              null  
s40190n2268w               wgn7234               7426_PCP.pcp               7426_TMP.tmp                        sim                        sim                        sim              null              null  
s40192n2334w               wgn7239               7425_PCP.pcp               7425_TMP.tmp                        sim                        sim                        sim              null              null  
s40194n2399w               wgn7245               7424_PCP.pcp               7424_TMP.tmp                        sim                        sim                        sim              null              null  
s40196n2464w               wgn7252               7423_PCP.pcp               7423_TMP.tmp                        sim                        sim                        sim              null              null  
s40198n2530w               wgn7263               7422_PCP.pcp               7422_TMP.tmp                        sim                        sim                        sim              null              null  
s40200n2595w               wgn7284               7421_PCP.pcp               7421_TMP.tmp                        sim                        sim                        sim              null              null  
s40202n2661w               wgn7287               7420_PCP.pcp               7420_TMP.tmp                        sim                        sim                        sim              null              null  
s40204n2726w               wgn7289               7419_PCP.pcp               7419_TMP.tmp                        sim                        sim                        sim              null              null  
s40205n2791w               wgn7291               7418_PCP.pcp               7418_TMP.tmp                        sim                        sim                        sim              null              null  
s40207n2857w               wgn7294               7417_PCP.pcp               7417_TMP.tmp                        sim                        sim                        sim              null              null  
s40209n2922w               wgn7295               7416_PCP.pcp               7416_TMP.tmp                        sim                        sim                        sim              null              null  
s40219n1677w               wgn7309               7545_PCP.pcp               7545_TMP.tmp                        sim                        sim                        sim              null              null  
s40222n1742w               wgn7313               7544_PCP.pcp               7544_TMP.tmp                        sim                        sim                        sim              null              null  
s40224n1807w               wgn7316               7543_PCP.pcp               7543_TMP.tmp                        sim                        sim                        sim              null              null  
s40226n1873w               wgn7320               7542_PCP.pcp               7542_TMP.tmp                        sim                        sim                        sim              null              null  
s40229n1938w               wgn7324               7541_PCP.pcp               7541_TMP.tmp                        sim                        sim                        sim              null              null  
s40231n2004w               wgn7327               7540_PCP.pcp               7540_TMP.tmp                        sim                        sim                        sim              null              null  
s40233n2069w               wgn7332               7539_PCP.pcp               7539_TMP.tmp                        sim                        sim                        sim              null              null  
s40235n2134w               wgn7336               7538_PCP.pcp               7538_TMP.tmp                        sim                        sim                        sim              null              null  
s40237n2200w               wgn7340               7537_PCP.pcp               7537_TMP.tmp                        sim                        sim                        sim              null              null  
s40240n2265w               wgn7346               7536_PCP.pcp               7536_TMP.tmp                        sim                        sim                        sim              null              null  
s40242n2331w               wgn7350               7535_PCP.pcp               7535_TMP.tmp                        sim                        sim                        sim              null              null  
s40244n2396w               wgn7356               7534_PCP.pcp               7534_TMP.tmp                        sim                        sim                        sim              null              null  
s40246n2462w               wgn7363               7533_PCP.pcp               7533_TMP.tmp                        sim                        sim                        sim              null              null  
s40248n2527w               wgn7375               7532_PCP.pcp               7532_TMP.tmp                        sim                        sim                        sim              null              null  
s40250n2593w               wgn7395               7531_PCP.pcp               7531_TMP.tmp                        sim                        sim                        sim              null              null  
s40252n2658w               wgn7397               7530_PCP.pcp               7530_TMP.tmp                        sim                        sim                        sim              null              null  
s40254n2724w               wgn7399               7529_PCP.pcp               7529_TMP.tmp                        sim                        sim                        sim              null              null  
s40255n2789w               wgn7401               7528_PCP.pcp               7528_TMP.tmp                        sim                        sim                        sim              null              null  
s40257n2854w               wgn7404               7527_PCP.pcp               7527_TMP.tmp                        sim                        sim                        sim              null              null  
s40259n2920w               wgn7405               7526_PCP.pcp               7526_TMP.tmp                        sim                        sim                        sim              null              null  
s40267n1608w               wgn7417               7656_PCP.pcp               7656_TMP.tmp                        sim                        sim                        sim              null              null  
s40269n1673w               wgn7419               7655_PCP.pcp               7655_TMP.tmp                        sim                        sim                        sim              null              null  
s40272n1739w               wgn7423               7654_PCP.pcp               7654_TMP.tmp                        sim                        sim                        sim              null              null  
s40274n1804w               wgn7426               7653_PCP.pcp               7653_TMP.tmp                        sim                        sim                        sim              null              null  
s40276n1870w               wgn7430               7652_PCP.pcp               7652_TMP.tmp                        sim                        sim                        sim              null              null  
s40279n1935w               wgn7434               7651_PCP.pcp               7651_TMP.tmp                        sim                        sim                        sim              null              null  
s40281n2001w               wgn7438               7650_PCP.pcp               7650_TMP.tmp                        sim                        sim                        sim              null              null  
s40283n2066w               wgn7443               7649_PCP.pcp               7649_TMP.tmp                        sim                        sim                        sim              null              null  
s40285n2132w               wgn7447               7648_PCP.pcp               7648_TMP.tmp                        sim                        sim                        sim              null              null  
s40288n2197w               wgn7453               7647_PCP.pcp               7647_TMP.tmp                        sim                        sim                        sim              null              null  
s40290n2263w               wgn7457               7646_PCP.pcp               7646_TMP.tmp                        sim                        sim                        sim              null              null  
s40292n2328w               wgn7461               7645_PCP.pcp               7645_TMP.tmp                        sim                        sim                        sim              null              null  
s40294n2394w               wgn7467               7644_PCP.pcp               7644_TMP.tmp                        sim                        sim                        sim              null              null  
s40296n2459w               wgn7473               7643_PCP.pcp               7643_TMP.tmp                        sim                        sim                        sim              null              null  
s40298n2525w               wgn7485               7642_PCP.pcp               7642_TMP.tmp                        sim                        sim                        sim              null              null  
s40300n2590w               wgn7505               7641_PCP.pcp               7641_TMP.tmp                        sim                        sim                        sim              null              null  
s40302n2656w               wgn7507               7640_PCP.pcp               7640_TMP.tmp                        sim                        sim                        sim              null              null  
s40303n2721w               wgn7508               7639_PCP.pcp               7639_TMP.tmp                        sim                        sim                        sim              null              null  
s40305n2787w               wgn7511               7638_PCP.pcp               7638_TMP.tmp                        sim                        sim                        sim              null              null  
s40307n2852w               wgn7514               7637_PCP.pcp               7637_TMP.tmp                        sim                        sim                        sim              null              null  
s40309n2918w               wgn7515               7636_PCP.pcp               7636_TMP.tmp                        sim                        sim                        sim              null              null  
s40317n1605w               wgn7527               7767_PCP.pcp               7767_TMP.tmp                        sim                        sim                        sim              null              null  
s40319n1670w               wgn7529               7766_PCP.pcp               7766_TMP.tmp                        sim                        sim                        sim              null              null  
s40322n1736w               wgn7533               7765_PCP.pcp               7765_TMP.tmp                        sim                        sim                        sim              null              null  
s40324n1801w               wgn7536               7764_PCP.pcp               7764_TMP.tmp                        sim                        sim                        sim              null              null  
s40326n1867w               wgn7541               7763_PCP.pcp               7763_TMP.tmp                        sim                        sim                        sim              null              null  
s40328n1932w               wgn7544               7762_PCP.pcp               7762_TMP.tmp                        sim                        sim                        sim              null              null  
s40331n1998w               wgn7549               7761_PCP.pcp               7761_TMP.tmp                        sim                        sim                        sim              null              null  
s40333n2063w               wgn7554               7760_PCP.pcp               7760_TMP.tmp                        sim                        sim                        sim              null              null  
s40335n2129w               wgn7558               7759_PCP.pcp               7759_TMP.tmp                        sim                        sim                        sim              null              null  
s40337n2194w               wgn7562               7758_PCP.pcp               7758_TMP.tmp                        sim                        sim                        sim              null              null  
s40340n2260w               wgn7568               7757_PCP.pcp               7757_TMP.tmp                        sim                        sim                        sim              null              null  
s40342n2325w               wgn7572               7756_PCP.pcp               7756_TMP.tmp                        sim                        sim                        sim              null              null  
s40344n2391w               wgn7578               7755_PCP.pcp               7755_TMP.tmp                        sim                        sim                        sim              null              null  
s40346n2456w               wgn7584               7754_PCP.pcp               7754_TMP.tmp                        sim                        sim                        sim              null              null  
s40348n2522w               wgn7593               7753_PCP.pcp               7753_TMP.tmp                        sim                        sim                        sim              null              null  
s40350n2588w               wgn7615               7752_PCP.pcp               7752_TMP.tmp                        sim                        sim                        sim              null              null  
s40352n2653w               wgn7617               7751_PCP.pcp               7751_TMP.tmp                        sim                        sim                        sim              null              null  
s40353n2719w               wgn7618               7750_PCP.pcp               7750_TMP.tmp                        sim                        sim                        sim              null              null  
s40355n2784w               wgn7621               7749_PCP.pcp               7749_TMP.tmp                        sim                        sim                        sim              null              null  
s40357n2850w               wgn7624               7748_PCP.pcp               7748_TMP.tmp                        sim                        sim                        sim              null              null  
s40359n2915w               wgn7625               7747_PCP.pcp               7747_TMP.tmp                        sim                        sim                        sim              null              null  
s40367n1601w               wgn7637               7883_PCP.pcp               7883_TMP.tmp                        sim                        sim                        sim              null              null  
s40369n1667w               wgn7639               7882_PCP.pcp               7882_TMP.tmp                        sim                        sim                        sim              null              null  
s40371n1732w               wgn7642               7881_PCP.pcp               7881_TMP.tmp                        sim                        sim                        sim              null              null  
s40374n1798w               wgn7647               7880_PCP.pcp               7880_TMP.tmp                        sim                        sim                        sim              null              null  
s40376n1864w               wgn7651               7879_PCP.pcp               7879_TMP.tmp                        sim                        sim                        sim              null              null  
s40379n1929w               wgn7655               7878_PCP.pcp               7878_TMP.tmp                        sim                        sim                        sim              null              null  
s40381n1995w               wgn7659               7877_PCP.pcp               7877_TMP.tmp                        sim                        sim                        sim              null              null  
s40383n2060w               wgn7664               7876_PCP.pcp               7876_TMP.tmp                        sim                        sim                        sim              null              null  
s40385n2126w               wgn7668               7875_PCP.pcp               7875_TMP.tmp                        sim                        sim                        sim              null              null  
s40387n2191w               wgn7672               7874_PCP.pcp               7874_TMP.tmp                        sim                        sim                        sim              null              null  
s40389n2257w               wgn7676               7873_PCP.pcp               7873_TMP.tmp                        sim                        sim                        sim              null              null  
s40392n2323w               wgn7682               7872_PCP.pcp               7872_TMP.tmp                        sim                        sim                        sim              null              null  
s40394n2388w               wgn7688               7871_PCP.pcp               7871_TMP.tmp                        sim                        sim                        sim              null              null  
s40396n2454w               wgn7694               7870_PCP.pcp               7870_TMP.tmp                        sim                        sim                        sim              null              null  
s40398n2519w               wgn7705               7869_PCP.pcp               7869_TMP.tmp                        sim                        sim                        sim              null              null  
s40400n2585w               wgn7725               7868_PCP.pcp               7868_TMP.tmp                        sim                        sim                        sim              null              null  
s40402n2651w               wgn7727               7867_PCP.pcp               7867_TMP.tmp                        sim                        sim                        sim              null              null  
s40404n2716w               wgn7729               7866_PCP.pcp               7866_TMP.tmp                        sim                        sim                        sim              null              null  
s40405n2782w               wgn7731               7865_PCP.pcp               7865_TMP.tmp                        sim                        sim                        sim              null              null  
s40407n2847w               wgn7734               7864_PCP.pcp               7864_TMP.tmp                        sim                        sim                        sim              null              null  
s40409n2913w               wgn7735               7863_PCP.pcp               7863_TMP.tmp                        sim                        sim                        sim              null              null  
s40414n1533w               wgn7743               8000_PCP.pcp               8000_TMP.tmp                        sim                        sim                        sim              null              null  
s40416n1598w               wgn7745               7999_PCP.pcp               7999_TMP.tmp                        sim                        sim                        sim              null              null  
s40419n1664w               wgn7749               7998_PCP.pcp               7998_TMP.tmp                        sim                        sim                        sim              null              null  
s40421n1729w               wgn7752               7997_PCP.pcp               7997_TMP.tmp                        sim                        sim                        sim              null              null  