weather-wgn.cli: written by SWAT+ editor v2.1.4 on 2022-11-22 14:57 for SWAT+ rev.60.5.4
wgn10000                       41.36800      -1.60200     668.00000        35  
 tmp_max_ave   tmp_min_ave    tmp_max_sd    tmp_min_sd       pcp_ave        pcp_sd      pcp_skew       wet_dry       wet_wet      pcp_days       pcp_hhr       slr_ave       dew_ave       wnd_ave  
     8.83898      -0.35429       3.02258       3.25456      24.76114       2.02730       4.96594       0.30645       0.79416      18.60000       6.71741       7.53364       0.75265       4.29428  
    11.06796       0.41815       3.74583       3.07888      24.71657       2.43036       5.12651       0.32673       0.77436      16.71429       6.33551      10.82811       0.71387       4.22764  
    14.99012       2.56230       4.11132       2.90157      25.92943       2.38547       5.91191       0.32008       0.72337      16.62857       7.72630      15.32811       0.65997       3.93845  
    17.12789       4.57943       4.36951       2.57246      50.79257       3.99414       4.29879       0.35440       0.81195      19.60000      12.24352      18.85238       0.64972       3.69599  
    21.79276       8.35126       4.81925       2.85442      59.86571       4.04185       3.77385       0.42298       0.76923      20.05714      11.49398      22.34718       0.60175       2.96675  
    27.77570      12.52005       4.79904       2.78098      38.59029       2.90791       3.60187       0.35464       0.69558      16.14286       7.17055      25.43619       0.52681       2.68100  
    31.45005      15.27133       3.86217       2.45866      22.00543       2.46831       6.64348       0.30596       0.59052      13.25714      10.45373      26.69309       0.43998       2.66627  
    30.52353      15.21446       3.74668       2.34055      21.99457       2.26911       5.18825       0.31840       0.56739      13.14286       6.60911      22.97604       0.44710       2.54036  
    25.69460      11.43759       4.03700       2.59750      33.86600       3.39214       5.53077       0.33652       0.66603      15.05714      11.95567      17.71810       0.52548       2.58163  
    19.48699       7.19002       3.96802       2.90649      40.30886       3.32666       4.80606       0.33189       0.75481      17.82857      10.88693      12.16221       0.64468       3.22926  
    12.86525       3.02588       3.51008       3.46348      36.07143       3.23748       4.90016       0.34426       0.76404      17.80000       8.49010       8.03905       0.72645       3.85082  
     9.22580       0.23832       2.83020       3.51544      26.64914       2.24606       4.74350       0.39286       0.75188      19.00000       6.34406       6.56639       0.74747       4.35261  
wgn10004                       41.37000      -1.66800     610.00000        35  
 tmp_max_ave   tmp_min_ave    tmp_max_sd    tmp_min_sd       pcp_ave        pcp_sd      pcp_skew       wet_dry       wet_wet      pcp_days       pcp_hhr       slr_ave       dew_ave       wnd_ave  
     9.30178      -0.49391       3.05826       3.26480      22.90143       1.94780       5.05675       0.30101       0.74576      16.85714       6.05034       7.53364       0.75265       4.29428  
    11.54981       0.37614       3.71116       3.07839      22.82029       2.28913       5.18983       0.32218       0.69863      14.60000       6.62573      10.82811       0.71387       4.22764  
    15.53470       2.48704       4.10203       2.90110      23.58457       2.19775       5.75032       0.27648       0.70833      15.08571       6.81067      15.32811       0.65997       3.93845  
    17.71605       4.63210       4.36544       2.55424      47.38286       3.81999       4.47156       0.31954       0.77398      17.57143      12.68488      18.85238       0.64972       3.69599  
    22.30865       8.48241       4.83182       2.82642      56.85543       3.75094       3.42280       0.36111       0.76110      18.65714       9.97529      22.34718       0.60175       2.96675  
    28.26844      12.74291       4.80613       2.73896      36.18229       2.73967       3.66231       0.31068       0.70093      15.28571       6.19125      25.43619       0.52681       2.68100  
    31.90573      15.37262       3.86124       2.40570      21.25257       2.39178       6.10826       0.23734       0.58376      11.25714       8.44876      26.69309       0.43998       2.66627  
    30.97816      15.24112       3.74106       2.29302      21.81371       2.32215       5.27584       0.25073       0.57568      11.51429       6.81654      22.97604       0.44710       2.54036  
    26.19722      11.60025       4.01611       2.58611      32.25400       3.19717       5.18746       0.27616       0.65525      13.34286      10.72974      17.71810       0.52548       2.58163  
    19.97115       7.12282       3.95502       2.91568      37.62657       3.11754       4.69468       0.31712       0.71454      16.31429      10.18078      12.16221       0.64468       3.22926  
    13.35315       2.81533       3.49525       3.48416      32.76800       2.98590       4.86749       0.34672       0.71577      16.48571       7.91153       8.03905       0.72645       3.85082  
     9.60315       0.03406       2.86744       3.54584      24.47429       2.13895       4.86142       0.33951       0.72454      17.11429       6.33510       6.56639       0.74747       4.35261  
wgn10010                       41.37300      -1.73500     626.00000        35  
 tmp_max_ave   tmp_min_ave    tmp_max_sd    tmp_min_sd       pcp_ave        pcp_sd      pcp_skew       wet_dry       wet_wet      pcp_days       pcp_hhr       slr_ave       dew_ave       wnd_ave  
     9.37905      -0.31971       3.03139       3.27301      22.76371       1.94049       5.07492       0.31174       0.73773      16.88571       6.21887       7.45530       0.76746       4.29507  
    11.51570       0.30696       3.71963       3.08367      22.51171       2.22006       5.21247       0.33128       0.67992      14.37143       7.35339      10.76542       0.72815       4.20261  
    15.45974       2.41556       4.11479       2.90613      23.10543       2.10892       5.51199       0.27387       0.71321      15.14286       6.55802      15.30691       0.67276       3.90943  
    17.57171       4.54037       4.37750       2.56074      46.69143       3.75621       4.55208       0.31567       0.76047      17.05714      13.06802      18.99524       0.66355       3.69238  
    22.16704       8.32799       4.84194       2.83079      56.48400       3.64788       3.19248       0.35374       0.75776      18.40000       9.05817      22.53186       0.61594       2.98580  
    28.00970      12.51548       4.81136       2.74067      35.15943       2.66943       3.71688       0.29750       0.70699      15.11429       5.81968      25.56762       0.53684       2.61131  
    31.83696      15.14629       3.85058       2.40983      21.16971       2.36985       5.90257       0.24294       0.54377      10.77143       8.34084      26.90230       0.43980       2.58332  
    30.84637      14.90053       3.73277       2.29758      22.33000       2.42335       5.31313       0.25793       0.54220      11.17143       6.98422      22.96129       0.44539       2.47116  
    26.05205      11.25940       4.03476       2.59616      31.79771       3.11600       4.97998       0.28376       0.64301      13.28571      10.28274      17.74571       0.52834       2.55345  
    19.93676       6.93683       3.97010       2.91991      37.35800       3.03297       4.42420       0.29787       0.72887      16.22857       9.36732      11.94194       0.65827       3.29894  
    13.36670       2.81599       3.49464       3.48695      31.83000       2.87145       4.74261       0.32922       0.71631      16.11429       7.92665       7.92762       0.73990       3.86668  
     9.67952       0.03500       2.83558       3.55027      24.38771       2.11159       4.72905       0.32866       0.72014      16.74286       6.37194       6.40576       0.76210       4.35639  
wgn10014                       41.37500      -1.80100     696.00000        35  
 tmp_max_ave   tmp_min_ave    tmp_max_sd    tmp_min_sd       pcp_ave        pcp_sd      pcp_skew       wet_dry       wet_wet      pcp_days       pcp_hhr       slr_ave       dew_ave       wnd_ave  
     9.12982      -0.39386       2.97640       3.27625      23.98314       1.98669       4.96732       0.30998       0.76059      17.54286       6.28790       7.45530       0.76746       4.29507  
    11.17914       0.13713       3.76621       3.09017      23.36371       2.20568       5.21168       0.33260       0.71429      15.20000       8.11874      10.76542       0.72815       4.20261  
    15.00178       2.11427       4.14661       2.91077      24.04457       2.09592       5.20415       0.27985       0.72678      15.68571       6.34492      15.30691       0.67276       3.90943  
    16.93047       4.17453       4.40150       2.58440      48.06571       3.77071       4.54180       0.33563       0.76260      17.57143      13.20308      18.99524       0.66355       3.69238  
    21.47737       7.91357       4.85116       2.85886      58.10829       3.68519       3.07680       0.38499       0.76339      19.20000       9.52939      22.53186       0.61594       2.98580  
    27.03802      12.02470       4.81106       2.77268      35.29857       2.68123       3.74861       0.32685       0.68657      15.31429       5.90372      25.56762       0.53684       2.61131  
    30.79630      14.69741       3.83570       2.45196      21.47743       2.37291       5.66169       0.23857       0.56623      11.00000       8.17277      26.90230       0.43980       2.58332  
    30.24257      14.45514       3.72188       2.34065      23.12886       2.53930       5.32388       0.25872       0.55164      11.34286       6.94520      22.96129       0.44539       2.47116  
    25.67934      10.75131       4.08362       2.62037      32.17857       3.11482       4.84248       0.29474       0.65000      13.71429      10.21971      17.74571       0.52834       2.55345  
    19.43562       6.62814       4.00887       2.91862      39.08714       3.05547       4.08563       0.29142       0.75000      16.68571       8.41588      11.94194       0.65827       3.29894  
    13.05804       2.64630       3.51471       3.47482      32.75543       2.86281       4.55774       0.32500       0.72632      16.28571       7.75257       7.92762       0.73990       3.86668  
     9.45521      -0.01551       2.76963       3.53114      25.90257       2.14662       4.41482       0.34052       0.74557      17.74286       6.32992       6.40576       0.76210       4.35639  
wgn10020                       41.37700      -1.86800     779.00000        35  
 tmp_max_ave   tmp_min_ave    tmp_max_sd    tmp_min_sd       pcp_ave        pcp_sd      pcp_skew       wet_dry       wet_wet      pcp_days       pcp_hhr       slr_ave       dew_ave       wnd_ave  
     8.69912      -0.52676       2.96649       3.27363      25.76886       2.05213       4.78396       0.32648       0.77743      18.48571       6.23687       7.45530       0.76746       4.29507  
    10.73484      -0.14926       3.84409       3.10094      24.67000       2.21265       5.20424       0.34442       0.74472      16.22857       8.79705      10.76542       0.72815       4.20261  
    14.43899       1.78862       4.19828       2.91803      25.56029       2.11716       4.85765       0.30315       0.73310      16.48571       6.20686      15.30691       0.67276       3.90943  
    16.37622       3.71784       4.43769       2.61288      50.17057       3.80816       4.47223       0.35825       0.79003      18.91429      13.30513      18.99524       0.66355       3.69238  
    20.81788       7.28864       4.86047       2.89306      60.55086       3.78326       3.05064       0.44385       0.76653      20.31429      10.61289      22.53186       0.61594       2.98580  
    26.42229      11.26774       4.80426       2.80993      36.02029       2.73656       3.77269       0.37295       0.67616      16.05714       6.30290      25.56762       0.53684       2.61131  
    30.25590      13.86745       3.82560       2.50496      21.95457       2.38048       5.31000       0.26537       0.57656      11.94286       7.60851      26.90230       0.43980       2.58332  
    29.82287      13.68247       3.71309       2.39175      23.81200       2.62642       5.35956       0.33062       0.56900      13.45714       7.28135      22.96129       0.44539       2.47116  
    25.22334      10.12424       4.14415       2.65031      32.78886       3.13051       4.71584       0.34463       0.64740      14.82857      10.17469      17.74571       0.52834       2.55345  
    19.01017       6.28498       4.05914       2.91434      41.74800       3.14101       3.81767       0.33966       0.73650      17.45714       7.55448      11.94194       0.65827       3.29894  
    12.64310       2.45224       3.56948       3.45534      34.57000       2.90333       4.37047       0.36795       0.73147      17.34286       7.54548       7.92762       0.73990       3.86668  
     9.12725      -0.12650       2.74894       3.50104      28.09857       2.21042       4.06384       0.38118       0.75455      18.85714       6.26088       6.40576       0.76210       4.35639  
wgn10025                       41.38000      -1.93400     840.00000        35  
 tmp_max_ave   tmp_min_ave    tmp_max_sd    tmp_min_sd       pcp_ave        pcp_sd      pcp_skew       wet_dry       wet_wet      pcp_days       pcp_hhr       slr_ave       dew_ave       wnd_ave  
     8.36719      -0.84349       2.99392       3.27115      27.18429       2.10630       4.62063       0.31765       0.79394      18.85714       6.24888       7.45530       0.76746       4.29507  
    10.35252      -0.44292       3.91258       3.10936      25.63314       2.21520       5.19519       0.34750       0.76401      16.82857       9.22025      10.76542       0.72815       4.20261  
    13.99489       1.54313       4.24853       2.92330      26.71829       2.13230       4.52094       0.33884       0.72712      17.17143       5.95174      15.30691       0.67276       3.90943  
    15.93661       3.44345       4.47324       2.63339      51.66229       3.82391       4.39626       0.36631       0.79734      19.31429      13.31413      18.99524       0.66355       3.69238  
    20.26725       6.90516       4.87492       2.91715      62.50486       3.87648       3.08422       0.45763       0.77839      20.88571      11.69639      22.53186       0.61594       2.98580  
    25.84558      10.72623       4.79853       2.83561      36.68200       2.79422       3.80797       0.37924       0.69031      16.51429       6.58503      25.56762       0.53684       2.61131  
    29.89267      13.29300       3.82192       2.53865      22.35486       2.39870       5.15053       0.29531       0.57528      12.71429       6.79213      26.90230       0.43980       2.58332  
    29.51522      13.16939       3.70926       2.42803      24.05743       2.65626       5.41450       0.35605       0.58032      14.22857       7.89064      22.96129       0.44539       2.47116  
    24.81570       9.70640       4.19507       2.67213      33.01257       3.11284       4.57638       0.35373       0.64896      15.05714       9.74249      17.74571       0.52834       2.55345  
    18.64899       5.97097       4.10271       2.91114      44.00857       3.23294       3.67876       0.37111       0.73701      18.14286       7.51846      11.94194       0.65827       3.29894  
    12.32827       2.22343       3.63004       3.43956      36.02086       2.93856       4.24722       0.38702       0.74606      18.11429       7.28135       7.92762       0.73990       3.86668  
     8.81946      -0.30516       2.76719       3.47818      29.80457       2.26246       3.79890       0.37789       0.78879      19.88571       6.10781       6.40576       0.76210       4.35639  
wgn10030                       41.38200      -2.00100     861.00000        35  
 tmp_max_ave   tmp_min_ave    tmp_max_sd    tmp_min_sd       pcp_ave        pcp_sd      pcp_skew       wet_dry       wet_wet      pcp_days       pcp_hhr       slr_ave       dew_ave       wnd_ave  
     8.31000      -1.03989       3.00471       3.27233      27.66400       2.13269       4.53828       0.33032       0.77138      18.37143       6.37194       7.45530       0.76746       4.29507  
    10.40930      -0.63115       3.93604       3.11495      25.82343       2.19957       5.18225       0.34568       0.76027      16.68571       9.35231      10.76542       0.72815       4.20261  
    14.14400       1.37551       4.27194       2.92521      27.00429       2.11993       4.25831       0.34082       0.71933      17.00000       5.41750      15.30691       0.67276       3.90943  
    16.02190       3.19412       4.49109       2.64091      51.80429       3.80062       4.35324       0.35969       0.78571      18.80000      13.20608      18.99524       0.66355       3.69238  
    20.48003       6.69068       4.88373       2.92339      63.24771       3.93329       3.17000       0.45304       0.77317      20.65714      12.70785      22.53186       0.61594       2.98580  
    26.07138      10.57127       4.79676       2.83779      36.89343       2.83045       3.85390       0.38750       0.67368      16.28571       6.91819      25.56762       0.53684       2.61131  
    30.26217      13.22759       3.81730       2.54362      22.49314       2.44553       5.45439       0.28927       0.57919      12.62857       8.67099      26.90230       0.43980       2.58332  
    29.51308      13.04789       3.70076       2.43489      23.76057       2.62957       5.46237       0.33890       0.58230      13.88571       8.16676      22.96129       0.44539       2.47116  
    24.72411       9.52201       4.22023       2.68450      32.46000       3.04822       4.45013       0.35115       0.65019      15.02857       8.88409      17.74571       0.52834       2.55345  
    18.58542       5.87480       4.12576       2.91220      45.01114       3.28696       3.64668       0.36203       0.74051      18.05714       7.89664      11.94194       0.65827       3.29894  
    12.24894       2.07281       3.65421       3.43618      36.28657       2.93588       4.22502       0.36952       0.74068      17.62857       7.14329       7.92762       0.73990       3.86668  
     8.78640      -0.36587       2.77330       3.47332      30.28714       2.27425       3.65620       0.37037       0.77941      19.42857       5.86770       6.40576       0.76210       4.35639  
wgn10036                       41.38400      -2.06700     854.00000        35  
 tmp_max_ave   tmp_min_ave    tmp_max_sd    tmp_min_sd       pcp_ave        pcp_sd      pcp_skew       wet_dry       wet_wet      pcp_days       pcp_hhr       slr_ave       dew_ave       wnd_ave  
     8.19973      -1.17838       2.98978       3.27705      27.41714       2.13811       4.50999       0.31140       0.77266      17.97143       6.40795       7.37512       0.78004       4.24009  
    10.21236      -0.64637       3.92412       3.11495      25.44857       2.17021       5.13742       0.33488       0.74240      15.97143       9.25626      10.66229       0.74246       4.15336  
    13.99208       1.44587       4.27221       2.92527      26.67314       2.09542       4.12308       0.29750       0.72518      16.11429       5.16538      15.30323       0.68401       3.90182  
    15.93079       3.37356       4.49198       2.63917      50.93771       3.75010       4.33581       0.32854       0.78357      18.08571      12.96597      19.20095       0.67665       3.71063  
    20.31807       6.74302       4.88829       2.91791      63.06771       3.96078       3.29549       0.42222       0.74853      19.42857      13.58126      22.86427       0.63134       3.04520  
    25.90372      10.55509       4.79490       2.82514      36.76314       2.85300       3.89829       0.35756       0.66359      15.45714       7.20332      25.93048       0.54503       2.66306  
    30.10532      13.08828       3.80589       2.52899      22.43714       2.52530       6.08326       0.26100       0.55831      11.51429      10.30075      27.19908       0.43415       2.66672  
    29.61370      12.92058       3.68761       2.42329      23.12029       2.56818       5.52575       0.30455       0.56696      12.80000       8.09473      23.11521       0.43753       2.56547  
    24.68390       9.35330       4.22559       2.68819      31.43286       2.96464       4.37702       0.32971       0.63454      14.22857       7.89664      17.79714       0.52681       2.60838  
    18.54273       5.68417       4.13065       2.91649      45.05829       3.30658       3.66826       0.33264       0.73211      17.17143       8.37086      11.77972       0.67029       3.34289  
    12.26509       1.97341       3.64742       3.44265      35.65143       2.90855       4.28871       0.35699       0.71624      16.71429       7.53347       7.81905       0.75238       3.85695  
     8.72297      -0.55952       2.75718       3.48321      29.89114       2.25617       3.60188       0.34382       0.76094      18.28571       5.60058       6.27391       0.77463       4.29752  
wgn10041                       41.38600      -2.13400     840.00000        35  
 tmp_max_ave   tmp_min_ave    tmp_max_sd    tmp_min_sd       pcp_ave        pcp_sd      pcp_skew       wet_dry       wet_wet      pcp_days       pcp_hhr       slr_ave       dew_ave       wnd_ave  
     8.25207      -1.25507       2.96694       3.28432      27.11200       2.14130       4.47995       0.29851       0.77110      17.60000       6.18435       7.37512       0.78004       4.24009  
    10.23114      -0.72895       3.89990       3.11513      25.06886       2.14498       5.01021       0.30330       0.74157      15.25714       8.74490      10.66229       0.74246       4.15336  
    13.97135       1.42276       4.26613       2.92632      26.30657       2.07912       4.11499       0.27860       0.72192      15.51429       5.37162      15.30323       0.68401       3.90182  
    15.96632       3.39696       4.48715       2.63328      49.84371       3.69518       4.30793       0.32207       0.76403      17.31429      12.22888      19.20095       0.67665       3.71063  
    20.40538       6.82061       4.88921       2.90974      62.44971       3.96485       3.43580       0.37123       0.75535      18.68571      13.82522      22.86427       0.63134       3.04520  
    26.04533      10.65510       4.79318       2.80907      36.54657       2.86969       3.93776       0.31111       0.67059      14.57143       7.23304      25.93048       0.54503       2.66306  
    30.19180      13.12359       3.79300       2.50854      22.24286       2.60959       6.63906       0.23488       0.55348      10.68571      10.88015      27.19908       0.43415       2.66672  
    29.64840      12.87555       3.67119       2.40736      22.33714       2.49618       5.66043       0.25910       0.55276      11.37143       8.04869      23.11521       0.43753       2.56547  
    24.76733       9.40043       4.22475       2.68963      30.34143       2.88805       4.35681       0.32632       0.61250      13.71429       7.18644      17.79714       0.52681       2.60838  
    18.57139       5.61949       4.12956       2.92342      44.88343       3.31952       3.70188       0.34615       0.71066      16.88571       8.23513      11.77972       0.67029       3.34289  
    12.31253       1.87094       3.62895       3.45238      35.03543       2.88966       4.36581       0.32661       0.70758      15.82857       7.65835       7.81905       0.75238       3.85695  
     8.76602      -0.69232       2.73310       3.49604      29.40343       2.23776       3.59631       0.32359       0.74422      17.31429       5.15897       6.27391       0.77463       4.29752  
wgn10049                       41.38900      -2.20100     854.00000        35  
 tmp_max_ave   tmp_min_ave    tmp_max_sd    tmp_min_sd       pcp_ave        pcp_sd      pcp_skew       wet_dry       wet_wet      pcp_days       pcp_hhr       slr_ave       dew_ave       wnd_ave  
     8.13971      -1.32598       2.97237       3.28539      27.74200       2.17841       4.37496       0.30353       0.75662      17.25714       6.12901       7.37512       0.78004       4.24009  
    10.07370      -0.79234       3.91330       3.12043      25.50114       2.15237       4.75743       0.31111       0.74026      15.40000       8.48565      10.66229       0.74246       4.15336  
    13.87985       1.37866       4.28242       2.92768      26.82371       2.11315       4.14784       0.26606       0.73148      15.42857       5.70662      15.30323       0.68401       3.90182  
    15.93780       3.36157       4.49909       2.63825      49.87714       3.67881       4.20676       0.33184       0.75497      17.25714      11.78319      19.20095       0.67665       3.71063  
    20.49954       6.75675       4.89448       2.91564      62.57114       3.98263       3.52452       0.34713       0.76769      18.57143      14.20683      22.86427       0.63134       3.04520  
    26.45994      10.61890       4.78943       2.80688      36.78857       2.90987       3.96886       0.31402       0.67379      14.71429       7.36704      25.93048       0.54503       2.66306  
    30.93297      13.10436       3.78547       2.51026      22.16229       2.66259       6.84898       0.20856       0.58172      10.31429      10.79568      27.19908       0.43415       2.66672  
    29.77063      12.79913       3.66095       2.41240      21.81371       2.44467       5.83244       0.26049       0.54315      11.25714       8.47399      23.11521       0.43753       2.56547  
    24.68061       9.33319       4.24544       2.69926      29.88743       2.86147       4.35967       0.32810       0.60587      13.62857       6.95048      17.79714       0.52681       2.60838  
    18.51855       5.58377       4.14726       2.92451      45.82286       3.38037       3.70339       0.33466       0.71184      16.65714       8.08947      11.77972       0.67029       3.34289  
    12.30353       1.84358       3.64657       3.45059      35.66857       2.93029       4.35999       0.32121       0.71351      15.85714       7.98752       7.81905       0.75238       3.85695  
     8.75024      -0.75513       2.73619       3.49332      30.07257       2.27840       3.58794       0.32143       0.74877      17.40000       4.96671       6.27391       0.77463       4.29752  
wgn10053                       41.39100      -2.26700     921.00000        35  
 tmp_max_ave   tmp_min_ave    tmp_max_sd    tmp_min_sd       pcp_ave        pcp_sd      pcp_skew       wet_dry       wet_wet      pcp_days       pcp_hhr       slr_ave       dew_ave       wnd_ave  
     7.96054      -1.32295       3.04876       3.27386      30.00800       2.27851       4.18107       0.28326       0.78514      17.68571       6.08531       7.37512       0.78004       4.24009  
     9.91566      -0.95124       4.00137       3.12765      27.27314       2.21475       4.37368       0.30769       0.76429      16.00000       8.26426      10.66229       0.74246       4.15336  
    13.59955       1.13347       4.34673       2.93236      28.80486       2.22154       4.09896       0.26415       0.74775      15.85714       6.02414      15.30323       0.68401       3.90182  
    15.54377       2.96265       4.54640       2.66091      51.91800       3.73211       3.99875       0.32212       0.78864      18.11429      11.28798      19.20095       0.67665       3.71063  
    19.86688       6.31434       4.91296       2.94119      64.12514       4.04637       3.50464       0.35904       0.77761      19.14286      14.26800      22.86427       0.63134       3.04520  
    25.67739      10.02821       4.78368       2.83623      37.70600       2.99198       3.98996       0.34221       0.65649      14.97143       7.39909      25.93048       0.54503       2.66306  
    29.98486      12.37986       3.79685       2.54782      22.25914       2.67352       6.75440       0.22113       0.58133      10.71429       9.74990      27.19908       0.43415       2.66672  
    29.32533      12.12511       3.66419       2.45110      21.71657       2.43709       5.91680       0.27166       0.54208      11.54286       8.51769      23.11521       0.43753       2.56547  
    24.45247       8.85076       4.30436       2.72344      30.46057       2.90547       4.34562       0.31681       0.63093      13.85714       6.74074      17.79714       0.52681       2.60838  
    18.13598       5.32656       4.20153       2.91612      48.74486       3.53375       3.66049       0.31515       0.73559      16.85714       9.25468      11.77972       0.67029       3.34289  
    12.00749       1.71705       3.73857       3.42793      38.43143       3.06669       4.20657       0.31942       0.73205      16.31429       8.28465       7.81905       0.75238       3.85695  
     8.54106      -0.74524       2.81224       3.45931      32.80400       2.42359       3.54943       0.32609       0.76000      17.85714       5.50271       6.27391       0.77463       4.29752  
wgn10060                       41.39300      -2.33400     996.00000        35  
 tmp_max_ave   tmp_min_ave    tmp_max_sd    tmp_min_sd       pcp_ave        pcp_sd      pcp_skew       wet_dry       wet_wet      pcp_days       pcp_hhr       slr_ave       dew_ave       wnd_ave  
     7.51776      -1.61934       3.16429       3.25787      32.81829       2.40046       4.01509       0.30303       0.80183      18.74286       6.00375       7.37512       0.78004       4.24009  
     9.59449      -1.28438       4.10663       3.14111      29.47000       2.29696       4.00315       0.31026       0.79800      17.11429       7.99043      10.66229       0.74246       4.15336  